/*---------------------------------------------------------------------------*\
| =========                 |                                                 |
| \\      /  F ield         | OpenFOAM: The Open Source CFD Toolbox           |
|  \\    /   O peration     | Version:  2412                                  |
|   \\  /    A nd           | Website:  www.openfoam.com                      |
|    \\/     M anipulation  |                                                 |
\*---------------------------------------------------------------------------*/
Build  : _8dbc61e11c-20241220 OPENFOAM=2412 version=v2412
Arch   : "LSB;label=32;scalar=64"
Exec   : interTwoPhaseCentralFoam
Date   : Oct 01 2025
Time   : 22:19:01
Host   : m-lenovo
PID    : 201238
I/O    : uncollated
Case   : /home/matvey-l/data/mkraposhin-github/VnV-github/TwoRarefactionWaves/interTwoPhaseCentralFoam/100CPL
nProcs : 1
trapFpe: Floating point exception trapping enabled (FOAM_SIGFPE).
fileModificationChecking : Monitoring run-time modified files using timeStampMaster (fileModificationSkew 5, maxFileModificationPolls 20)
allowSystemOperations : Allowing user-supplied system call operations

// * * * * * * * * * * * * * * * * * * * * * * * * * * * * * * * * * * * * * //
Create time

Create mesh for time = 0


PIMPLE: no residual control data found. Calculations will employ 3 corrector loops


Constructor is working


Starting time loop


Reading g

Reading hRef
Calculating field g.h

 C1 88.2839 C2 0.74834
Courant Number mean: 0.0392 max: 0.04
deltaT = 0.00012
Time = 0.00012

diagonal:  Solving for rho1, Initial residual = 0, Final residual = 0, No Iterations 0
diagonal:  Solving for rho2, Initial residual = 0, Final residual = 0, No Iterations 0
PIMPLE: iteration 1
MULES: Solving for volumeFraction1
Phase-1 volume fraction = 0  Min(volumeFraction1) = 0  Max(volumeFraction1) = 0
 max: rho1 1000 min: 1000
 max: rho2 1 min: 1
DILUPBiCGStab:  Solving for T, Initial residual = 0, Final residual = 0, No Iterations 0
 C1 88.2839 C2 0.74834
DILUPBiCGStab:  Solving for p_rgh, Initial residual = 1, Final residual = 1.69643e-16, No Iterations 1
max/min kappa: 1/0
GAMGPCG:  Solving for pcorr, Initial residual = 0.999972, Final residual = 1.26791e-13, No Iterations 1
PIMPLE: iteration 2
MULES: Solving for volumeFraction1
Phase-1 volume fraction = 0  Min(volumeFraction1) = 0  Max(volumeFraction1) = 0
 max: rho1 1000 min: 1000
 max: rho2 1.02459 min: 0.976002
DILUPBiCGStab:  Solving for T, Initial residual = 1, Final residual = 1.20946e-16, No Iterations 1
 C1 88.6013 C2 0.75103
DILUPBiCGStab:  Solving for p_rgh, Initial residual = 0.122914, Final residual = 3.55638e-18, No Iterations 1
max/min kappa: 1/0
GAMGPCG:  Solving for pcorr, Initial residual = 0.999967, Final residual = 2.55193e-13, No Iterations 1
PIMPLE: iteration 3
MULES: Solving for volumeFraction1
Phase-1 volume fraction = 0  Min(volumeFraction1) = 0  Max(volumeFraction1) = 0
 max: rho1 1000 min: 1000
 max: rho2 1.024 min: 0.976174
DILUPBiCGStab:  Solving for T, Initial residual = 0.118109, Final residual = 7.99179e-18, No Iterations 1
 C1 88.6787 C2 0.751686
DILUPBiCGStab:  Solving for p_rgh, Initial residual = 0.0299391, Final residual = 5.64379e-18, No Iterations 1
max/min kappa: 1/0
GAMGPCG:  Solving for pcorr, Initial residual = 0.999978, Final residual = 5.1347e-15, No Iterations 1
ExecutionTime = 0.01 s  ClockTime = 0 s

Courant Number mean: 0.047061 max: 0.0485279
deltaT = 0.000143977
Time = 0.000263977

diagonal:  Solving for rho1, Initial residual = 0, Final residual = 0, No Iterations 0
diagonal:  Solving for rho2, Initial residual = 0, Final residual = 0, No Iterations 0
PIMPLE: iteration 1
MULES: Solving for volumeFraction1
Phase-1 volume fraction = 0  Min(volumeFraction1) = 0  Max(volumeFraction1) = 0
 max: rho1 1028.79 min: 971.207
 max: rho2 1.05279 min: 0.947332
DILUPBiCGStab:  Solving for T, Initial residual = 0.614365, Final residual = 5.86303e-17, No Iterations 1
 C1 89.1527 C2 0.755704
DILUPBiCGStab:  Solving for p_rgh, Initial residual = 0.273058, Final residual = 3.22092e-17, No Iterations 1
max/min kappa: 1/0
GAMGPCG:  Solving for pcorr, Initial residual = 0.999965, Final residual = 5.40727e-14, No Iterations 1
PIMPLE: iteration 2
MULES: Solving for volumeFraction1
Phase-1 volume fraction = 0  Min(volumeFraction1) = 0  Max(volumeFraction1) = 0
 max: rho1 1000 min: 1000
 max: rho2 1.05279 min: 0.947624
DILUPBiCGStab:  Solving for T, Initial residual = 0.0912644, Final residual = 9.60276e-19, No Iterations 1
 C1 89.1971 C2 0.75608
DILUPBiCGStab:  Solving for p_rgh, Initial residual = 0.0374752, Final residual = 1.12284e-19, No Iterations 1
max/min kappa: 1/0
GAMGPCG:  Solving for pcorr, Initial residual = 0.999968, Final residual = 8.79439e-14, No Iterations 1
PIMPLE: iteration 3
MULES: Solving for volumeFraction1
Phase-1 volume fraction = 0  Min(volumeFraction1) = 0  Max(volumeFraction1) = 0
 max: rho1 1000 min: 1000
 max: rho2 1.05279 min: 0.947077
DILUPBiCGStab:  Solving for T, Initial residual = 0.0132699, Final residual = 9.43656e-19, No Iterations 1
 C1 89.2823 C2 0.756802
DILUPBiCGStab:  Solving for p_rgh, Initial residual = 0.00880455, Final residual = 5.34979e-20, No Iterations 1
max/min kappa: 1/0
GAMGPCG:  Solving for pcorr, Initial residual = 0.99997, Final residual = 1.67959e-13, No Iterations 1
ExecutionTime = 0.02 s  ClockTime = 0 s

Courant Number mean: 0.0565028 max: 0.0591926
deltaT = 0.000172706
Time = 0.000436683

diagonal:  Solving for rho1, Initial residual = 0, Final residual = 0, No Iterations 0
diagonal:  Solving for rho2, Initial residual = 0, Final residual = 0, No Iterations 0
PIMPLE: iteration 1
MULES: Solving for volumeFraction1
Phase-1 volume fraction = 0  Min(volumeFraction1) = 0  Max(volumeFraction1) = 0
 max: rho1 1034.53 min: 965.47
 max: rho2 1.08732 min: 0.912765
DILUPBiCGStab:  Solving for T, Initial residual = 0.231996, Final residual = 5.66959e-18, No Iterations 1
 C1 90.9146 C2 0.770638
DILUPBiCGStab:  Solving for p_rgh, Initial residual = 0.144865, Final residual = 2.29405e-19, No Iterations 1
max/min kappa: 1/0
GAMGPCG:  Solving for pcorr, Initial residual = 0.99996, Final residual = 2.69321e-13, No Iterations 1
PIMPLE: iteration 2
MULES: Solving for volumeFraction1
Phase-1 volume fraction = 0  Min(volumeFraction1) = 0  Max(volumeFraction1) = 0
 max: rho1 1000 min: 1000
 max: rho2 1.08732 min: 0.913031
DILUPBiCGStab:  Solving for T, Initial residual = 0.00416591, Final residual = 7.22269e-19, No Iterations 1
 C1 90.9155 C2 0.770646
DILUPBiCGStab:  Solving for p_rgh, Initial residual = 0.00307881, Final residual = 4.74239e-19, No Iterations 1
max/min kappa: 1/0
GAMGPCG:  Solving for pcorr, Initial residual = 0.99996, Final residual = 8.25142e-14, No Iterations 1
PIMPLE: iteration 3
MULES: Solving for volumeFraction1
Phase-1 volume fraction = 0  Min(volumeFraction1) = 0  Max(volumeFraction1) = 0
 max: rho1 1000 min: 1000
 max: rho2 1.08732 min: 0.912988
DILUPBiCGStab:  Solving for T, Initial residual = 0.00345447, Final residual = 2.24867e-19, No Iterations 1
 C1 90.954 C2 0.770973
DILUPBiCGStab:  Solving for p_rgh, Initial residual = 0.00252629, Final residual = 3.08344e-19, No Iterations 1
max/min kappa: 1/0
GAMGPCG:  Solving for pcorr, Initial residual = 0.999959, Final residual = 1.07877e-13, No Iterations 1
ExecutionTime = 0.03 s  ClockTime = 0 s

Courant Number mean: 0.0678234 max: 0.0721662
deltaT = 0.000207151
Time = 0.000643834

diagonal:  Solving for rho1, Initial residual = 0, Final residual = 0, No Iterations 0
diagonal:  Solving for rho2, Initial residual = 0, Final residual = 0, No Iterations 0
PIMPLE: iteration 1
MULES: Solving for volumeFraction1
Phase-1 volume fraction = 0  Min(volumeFraction1) = 0  Max(volumeFraction1) = 0
 max: rho1 1041.41 min: 958.598
 max: rho2 1.12873 min: 0.871836
DILUPBiCGStab:  Solving for T, Initial residual = 0.139786, Final residual = 8.32566e-19, No Iterations 1
 C1 92.8893 C2 0.787377
DILUPBiCGStab:  Solving for p_rgh, Initial residual = 0.113263, Final residual = 3.58459e-19, No Iterations 1
max/min kappa: 1/0
GAMGPCG:  Solving for pcorr, Initial residual = 0.99995, Final residual = 1.97631e-13, No Iterations 1
PIMPLE: iteration 2
MULES: Solving for volumeFraction1
Phase-1 volume fraction = 0  Min(volumeFraction1) = 0  Max(volumeFraction1) = 0
 max: rho1 1000 min: 1000
 max: rho2 1.12872 min: 0.872381
DILUPBiCGStab:  Solving for T, Initial residual = 0.00399316, Final residual = 2.61449e-19, No Iterations 1
 C1 92.8785 C2 0.787286
DILUPBiCGStab:  Solving for p_rgh, Initial residual = 0.00335992, Final residual = 4.99259e-19, No Iterations 1
max/min kappa: 1/0
GAMGPCG:  Solving for pcorr, Initial residual = 0.999958, Final residual = 1.08305e-13, No Iterations 1
PIMPLE: iteration 3
MULES: Solving for volumeFraction1
Phase-1 volume fraction = 0  Min(volumeFraction1) = 0  Max(volumeFraction1) = 0
 max: rho1 1000 min: 1000
 max: rho2 1.12872 min: 0.87224
DILUPBiCGStab:  Solving for T, Initial residual = 0.00223281, Final residual = 3.67618e-20, No Iterations 1
 C1 92.9153 C2 0.787597
DILUPBiCGStab:  Solving for p_rgh, Initial residual = 0.00175291, Final residual = 9.42275e-20, No Iterations 1
max/min kappa: 1/0
GAMGPCG:  Solving for pcorr, Initial residual = 0.999955, Final residual = 4.2106e-14, No Iterations 1
ExecutionTime = 0.04 s  ClockTime = 0 s

Courant Number mean: 0.081417 max: 0.0882403
deltaT = 0.000248513
Time = 0.000892347

diagonal:  Solving for rho1, Initial residual = 0, Final residual = 0, No Iterations 0
diagonal:  Solving for rho2, Initial residual = 0, Final residual = 0, No Iterations 0
PIMPLE: iteration 1
MULES: Solving for volumeFraction1
Phase-1 volume fraction = 0  Min(volumeFraction1) = 0  Max(volumeFraction1) = 0
 max: rho1 1049.67 min: 950.363
 max: rho2 1.17839 min: 0.823339
DILUPBiCGStab:  Solving for T, Initial residual = 0.103284, Final residual = 5.28752e-18, No Iterations 1
 C1 95.1769 C2 0.806768
DILUPBiCGStab:  Solving for p_rgh, Initial residual = 0.0983128, Final residual = 9.37402e-18, No Iterations 1
max/min kappa: 1/0
GAMGPCG:  Solving for pcorr, Initial residual = 0.999958, Final residual = 1.54771e-13, No Iterations 1
PIMPLE: iteration 2
MULES: Solving for volumeFraction1
Phase-1 volume fraction = 0  Min(volumeFraction1) = 0  Max(volumeFraction1) = 0
 max: rho1 1000 min: 1000
 max: rho2 1.17836 min: 0.824493
DILUPBiCGStab:  Solving for T, Initial residual = 0.00378595, Final residual = 2.69131e-19, No Iterations 1
 C1 95.1709 C2 0.806717
DILUPBiCGStab:  Solving for p_rgh, Initial residual = 0.00336388, Final residual = 2.98696e-19, No Iterations 1
max/min kappa: 1/0
GAMGPCG:  Solving for pcorr, Initial residual = 0.999957, Final residual = 2.55213e-13, No Iterations 1
PIMPLE: iteration 3
MULES: Solving for volumeFraction1
Phase-1 volume fraction = 0  Min(volumeFraction1) = 0  Max(volumeFraction1) = 0
 max: rho1 1000 min: 1000
 max: rho2 1.17837 min: 0.824158
DILUPBiCGStab:  Solving for T, Initial residual = 0.00144143, Final residual = 2.39385e-19, No Iterations 1
 C1 95.1975 C2 0.806943
DILUPBiCGStab:  Solving for p_rgh, Initial residual = 0.00119355, Final residual = 2.98026e-19, No Iterations 1
max/min kappa: 1/0
GAMGPCG:  Solving for pcorr, Initial residual = 0.999953, Final residual = 8.77285e-14, No Iterations 1
ExecutionTime = 0.05 s  ClockTime = 0 s

Courant Number mean: 0.0977637 max: 0.108149
deltaT = 0.000298215
Time = 0.00119056

diagonal:  Solving for rho1, Initial residual = 0, Final residual = 0, No Iterations 0
diagonal:  Solving for rho2, Initial residual = 0, Final residual = 0, No Iterations 0
PIMPLE: iteration 1
MULES: Solving for volumeFraction1
Phase-1 volume fraction = 0  Min(volumeFraction1) = 0  Max(volumeFraction1) = 0
 max: rho1 1059.57 min: 940.502
 max: rho2 1.23795 min: 0.766468
DILUPBiCGStab:  Solving for T, Initial residual = 0.0835574, Final residual = 8.97127e-18, No Iterations 1
 C1 97.8226 C2 0.829194
DILUPBiCGStab:  Solving for p_rgh, Initial residual = 0.0903535, Final residual = 9.08795e-20, No Iterations 1
max/min kappa: 1/0
GAMGPCG:  Solving for pcorr, Initial residual = 0.999936, Final residual = 2.17557e-13, No Iterations 1
PIMPLE: iteration 2
MULES: Solving for volumeFraction1
Phase-1 volume fraction = 0  Min(volumeFraction1) = 0  Max(volumeFraction1) = 0
 max: rho1 1000 min: 1000
 max: rho2 1.23791 min: 0.768678
DILUPBiCGStab:  Solving for T, Initial residual = 0.00408478, Final residual = 2.30839e-19, No Iterations 1
 C1 97.8322 C2 0.829276
DILUPBiCGStab:  Solving for p_rgh, Initial residual = 0.00346654, Final residual = 6.14518e-19, No Iterations 1
max/min kappa: 1/0
GAMGPCG:  Solving for pcorr, Initial residual = 0.999939, Final residual = 2.31258e-14, No Iterations 1
PIMPLE: iteration 3
MULES: Solving for volumeFraction1
Phase-1 volume fraction = 0  Min(volumeFraction1) = 0  Max(volumeFraction1) = 0
 max: rho1 1000 min: 1000
 max: rho2 1.23791 min: 0.768046
DILUPBiCGStab:  Solving for T, Initial residual = 0.00082504, Final residual = 5.31769e-20, No Iterations 1
 C1 97.8253 C2 0.829217
DILUPBiCGStab:  Solving for p_rgh, Initial residual = 0.000717038, Final residual = 5.80883e-20, No Iterations 1
max/min kappa: 1/0
GAMGPCG:  Solving for pcorr, Initial residual = 0.999928, Final residual = 5.62393e-14, No Iterations 1
ExecutionTime = 0.06 s  ClockTime = 0 s

Courant Number mean: 0.117434 max: 0.132772
deltaT = 0.000357715
Time = 0.00154828

diagonal:  Solving for rho1, Initial residual = 0, Final residual = 0, No Iterations 0
diagonal:  Solving for rho2, Initial residual = 0, Final residual = 0, No Iterations 0
PIMPLE: iteration 1
MULES: Solving for volumeFraction1
Phase-1 volume fraction = 0  Min(volumeFraction1) = 0  Max(volumeFraction1) = 0
 max: rho1 1071.41 min: 928.772
 max: rho2 1.30934 min: 0.700809
DILUPBiCGStab:  Solving for T, Initial residual = 0.0708468, Final residual = 7.94992e-18, No Iterations 1
 C1 100.842 C2 0.854789
DILUPBiCGStab:  Solving for p_rgh, Initial residual = 0.0861128, Final residual = 3.38953e-19, No Iterations 1
max/min kappa: 1/0
GAMGPCG:  Solving for pcorr, Initial residual = 0.999923, Final residual = 1.39594e-13, No Iterations 1
PIMPLE: iteration 2
MULES: Solving for volumeFraction1
Phase-1 volume fraction = 0  Min(volumeFraction1) = 0  Max(volumeFraction1) = 0
 max: rho1 1000 min: 1000
 max: rho2 1.30928 min: 0.704734
DILUPBiCGStab:  Solving for T, Initial residual = 0.00492929, Final residual = 1.10105e-18, No Iterations 1
 C1 100.887 C2 0.855173
DILUPBiCGStab:  Solving for p_rgh, Initial residual = 0.00398789, Final residual = 4.78822e-19, No Iterations 1
max/min kappa: 1/0
GAMGPCG:  Solving for pcorr, Initial residual = 0.99993, Final residual = 8.74885e-14, No Iterations 1
PIMPLE: iteration 3
MULES: Solving for volumeFraction1
Phase-1 volume fraction = 0  Min(volumeFraction1) = 0  Max(volumeFraction1) = 0
 max: rho1 1000 min: 1000
 max: rho2 1.30929 min: 0.70369
DILUPBiCGStab:  Solving for T, Initial residual = 0.00167779, Final residual = 2.64028e-19, No Iterations 1
 C1 100.8 C2 0.854435
DILUPBiCGStab:  Solving for p_rgh, Initial residual = 0.00131356, Final residual = 4.61758e-20, No Iterations 1
max/min kappa: 1/0
GAMGPCG:  Solving for pcorr, Initial residual = 0.999923, Final residual = 1.16131e-13, No Iterations 1
ExecutionTime = 0.07 s  ClockTime = 0 s

Courant Number mean: 0.141006 max: 0.16288
deltaT = 0.000424148
Time = 0.00197243

diagonal:  Solving for rho1, Initial residual = 0, Final residual = 0, No Iterations 0
diagonal:  Solving for rho2, Initial residual = 0, Final residual = 0, No Iterations 0
PIMPLE: iteration 1
MULES: Solving for volumeFraction1
Phase-1 volume fraction = 0  Min(volumeFraction1) = 0  Max(volumeFraction1) = 0
 max: rho1 1084.59 min: 915.844
 max: rho2 1.39392 min: 0.627618
DILUPBiCGStab:  Solving for T, Initial residual = 0.0610258, Final residual = 5.21086e-18, No Iterations 1
 C1 104.18 C2 0.883085
DILUPBiCGStab:  Solving for p_rgh, Initial residual = 0.0832446, Final residual = 8.16123e-18, No Iterations 1
max/min kappa: 1/0
GAMGPCG:  Solving for pcorr, Initial residual = 0.999911, Final residual = 1.5444e-13, No Iterations 1
PIMPLE: iteration 2
MULES: Solving for volumeFraction1
Phase-1 volume fraction = 0  Min(volumeFraction1) = 0  Max(volumeFraction1) = 0
 max: rho1 1000 min: 1000
 max: rho2 1.39381 min: 0.633991
DILUPBiCGStab:  Solving for T, Initial residual = 0.00586133, Final residual = 8.16238e-19, No Iterations 1
 C1 104.291 C2 0.884022
DILUPBiCGStab:  Solving for p_rgh, Initial residual = 0.00390332, Final residual = 4.61126e-19, No Iterations 1
max/min kappa: 1/0
GAMGPCG:  Solving for pcorr, Initial residual = 0.999917, Final residual = 1.16261e-13, No Iterations 1
PIMPLE: iteration 3
MULES: Solving for volumeFraction1
Phase-1 volume fraction = 0  Min(volumeFraction1) = 0  Max(volumeFraction1) = 0
 max: rho1 1000 min: 1000
 max: rho2 1.39383 min: 0.632499
DILUPBiCGStab:  Solving for T, Initial residual = 0.00321856, Final residual = 2.24622e-19, No Iterations 1
 C1 104.047 C2 0.881957
DILUPBiCGStab:  Solving for p_rgh, Initial residual = 0.00214854, Final residual = 2.09357e-20, No Iterations 1
max/min kappa: 1/0
GAMGPCG:  Solving for pcorr, Initial residual = 0.999909, Final residual = 6.0695e-14, No Iterations 1
ExecutionTime = 0.08 s  ClockTime = 0 s

Courant Number mean: 0.167339 max: 0.196887
deltaT = 0.00048854
Time = 0.00246096

diagonal:  Solving for rho1, Initial residual = 0, Final residual = 0, No Iterations 0
diagonal:  Solving for rho2, Initial residual = 0, Final residual = 0, No Iterations 0
PIMPLE: iteration 1
MULES: Solving for volumeFraction1
Phase-1 volume fraction = 0  Min(volumeFraction1) = 0  Max(volumeFraction1) = 0
 max: rho1 1097.3 min: 903.668
 max: rho2 1.4912 min: 0.550905
DILUPBiCGStab:  Solving for T, Initial residual = 0.0527426, Final residual = 3.5635e-18, No Iterations 1
 C1 107.648 C2 0.912483
DILUPBiCGStab:  Solving for p_rgh, Initial residual = 0.0799652, Final residual = 1.37409e-17, No Iterations 1
max/min kappa: 1/0
GAMGPCG:  Solving for pcorr, Initial residual = 0.999902, Final residual = 7.44878e-14, No Iterations 1
PIMPLE: iteration 2
MULES: Solving for volumeFraction1
Phase-1 volume fraction = 0  Min(volumeFraction1) = 0  Max(volumeFraction1) = 0
 max: rho1 1000 min: 1000
 max: rho2 1.49106 min: 0.560089
DILUPBiCGStab:  Solving for T, Initial residual = 0.00653624, Final residual = 1.13405e-18, No Iterations 1
 C1 107.854 C2 0.914225
DILUPBiCGStab:  Solving for p_rgh, Initial residual = 0.00374425, Final residual = 6.61679e-19, No Iterations 1
max/min kappa: 1/0
GAMGPCG:  Solving for pcorr, Initial residual = 0.999904, Final residual = 5.7216e-14, No Iterations 1
PIMPLE: iteration 3
MULES: Solving for volumeFraction1
Phase-1 volume fraction = 0  Min(volumeFraction1) = 0  Max(volumeFraction1) = 0
 max: rho1 1000 min: 1000
 max: rho2 1.49108 min: 0.558225
DILUPBiCGStab:  Solving for T, Initial residual = 0.00478499, Final residual = 5.22113e-20, No Iterations 1
 C1 107.366 C2 0.910088
DILUPBiCGStab:  Solving for p_rgh, Initial residual = 0.00298323, Final residual = 1.74885e-19, No Iterations 1
max/min kappa: 1/0
GAMGPCG:  Solving for pcorr, Initial residual = 0.999904, Final residual = 2.47917e-14, No Iterations 1
ExecutionTime = 0.08 s  ClockTime = 0 s

Courant Number mean: 0.192846 max: 0.229524
deltaT = 0.000552581
Time = 0.00301355

diagonal:  Solving for rho1, Initial residual = 0, Final residual = 0, No Iterations 0
diagonal:  Solving for rho2, Initial residual = 0, Final residual = 0, No Iterations 0
PIMPLE: iteration 1
MULES: Solving for volumeFraction1
Phase-1 volume fraction = 0  Min(volumeFraction1) = 0  Max(volumeFraction1) = 0
 max: rho1 1109.86 min: 892.152
 max: rho2 1.60109 min: 0.474793
DILUPBiCGStab:  Solving for T, Initial residual = 0.0459433, Final residual = 3.35737e-18, No Iterations 1
 C1 111.018 C2 0.941045
DILUPBiCGStab:  Solving for p_rgh, Initial residual = 0.0768753, Final residual = 2.12246e-18, No Iterations 1
max/min kappa: 1/0
GAMGPCG:  Solving for pcorr, Initial residual = 0.999895, Final residual = 8.80166e-14, No Iterations 1
PIMPLE: iteration 2
MULES: Solving for volumeFraction1
Phase-1 volume fraction = 0  Min(volumeFraction1) = 0  Max(volumeFraction1) = 0
 max: rho1 1000 min: 1000
 max: rho2 1.60089 min: 0.486774
DILUPBiCGStab:  Solving for T, Initial residual = 0.00690749, Final residual = 6.38415e-19, No Iterations 1
 C1 111.345 C2 0.943815
DILUPBiCGStab:  Solving for p_rgh, Initial residual = 0.00372463, Final residual = 4.56585e-19, No Iterations 1
max/min kappa: 1/0
GAMGPCG:  Solving for pcorr, Initial residual = 0.999898, Final residual = 1.97494e-13, No Iterations 1
PIMPLE: iteration 3
MULES: Solving for volumeFraction1
Phase-1 volume fraction = 0  Min(volumeFraction1) = 0  Max(volumeFraction1) = 0
 max: rho1 1000 min: 1000
 max: rho2 1.60092 min: 0.484631
DILUPBiCGStab:  Solving for T, Initial residual = 0.00607402, Final residual = 1.33334e-18, No Iterations 1
 C1 110.534 C2 0.936944
DILUPBiCGStab:  Solving for p_rgh, Initial residual = 0.00348606, Final residual = 2.00781e-19, No Iterations 1
max/min kappa: 1/0
GAMGPCG:  Solving for pcorr, Initial residual = 0.999892, Final residual = 1.42527e-13, No Iterations 1
ExecutionTime = 0.09 s  ClockTime = 0 s

Courant Number mean: 0.218131 max: 0.259974
deltaT = 0.00061759
Time = 0.00363114

diagonal:  Solving for rho1, Initial residual = 0, Final residual = 0, No Iterations 0
diagonal:  Solving for rho2, Initial residual = 0, Final residual = 0, No Iterations 0
PIMPLE: iteration 1
MULES: Solving for volumeFraction1
Phase-1 volume fraction = 0  Min(volumeFraction1) = 0  Max(volumeFraction1) = 0
 max: rho1 1122.51 min: 881.381
 max: rho2 1.72369 min: 0.403068
DILUPBiCGStab:  Solving for T, Initial residual = 0.0404612, Final residual = 3.16676e-18, No Iterations 1
 C1 114.036 C2 0.966625
DILUPBiCGStab:  Solving for p_rgh, Initial residual = 0.0740691, Final residual = 6.99973e-18, No Iterations 1
max/min kappa: 1/0
GAMGPCG:  Solving for pcorr, Initial residual = 0.999883, Final residual = 1.13001e-13, No Iterations 1
PIMPLE: iteration 2
MULES: Solving for volumeFraction1
Phase-1 volume fraction = 0  Min(volumeFraction1) = 0  Max(volumeFraction1) = 0
 max: rho1 1000 min: 1000
 max: rho2 1.72343 min: 0.417431
DILUPBiCGStab:  Solving for T, Initial residual = 0.00690463, Final residual = 6.28014e-19, No Iterations 1
 C1 114.492 C2 0.970494
DILUPBiCGStab:  Solving for p_rgh, Initial residual = 0.00335732, Final residual = 3.39214e-19, No Iterations 1
max/min kappa: 1/0
GAMGPCG:  Solving for pcorr, Initial residual = 0.999867, Final residual = 1.82485e-13, No Iterations 1
PIMPLE: iteration 3
MULES: Solving for volumeFraction1
Phase-1 volume fraction = 0  Min(volumeFraction1) = 0  Max(volumeFraction1) = 0
 max: rho1 1000 min: 1000
 max: rho2 1.72348 min: 0.415006
DILUPBiCGStab:  Solving for T, Initial residual = 0.00678776, Final residual = 7.67786e-19, No Iterations 1
 C1 113.32 C2 0.960557
DILUPBiCGStab:  Solving for p_rgh, Initial residual = 0.00347161, Final residual = 5.6678e-19, No Iterations 1
max/min kappa: 1/0
GAMGPCG:  Solving for pcorr, Initial residual = 0.999876, Final residual = 1.9641e-14, No Iterations 1
ExecutionTime = 0.1 s  ClockTime = 0 s

Courant Number mean: 0.243648 max: 0.287393
deltaT = 0.000644797
Time = 0.00427593

diagonal:  Solving for rho1, Initial residual = 0, Final residual = 0, No Iterations 0
diagonal:  Solving for rho2, Initial residual = 0, Final residual = 0, No Iterations 0
PIMPLE: iteration 1
MULES: Solving for volumeFraction1
Phase-1 volume fraction = 0  Min(volumeFraction1) = 0  Max(volumeFraction1) = 0
 max: rho1 1127.54 min: 879.098
 max: rho2 1.85145 min: 0.343287
DILUPBiCGStab:  Solving for T, Initial residual = 0.0350654, Final residual = 4.98782e-19, No Iterations 1
 C1 116.394 C2 0.986619
DILUPBiCGStab:  Solving for p_rgh, Initial residual = 0.0674198, Final residual = 9.01907e-18, No Iterations 1
max/min kappa: 1/0
GAMGPCG:  Solving for pcorr, Initial residual = 0.999867, Final residual = 5.53411e-14, No Iterations 1
PIMPLE: iteration 2
MULES: Solving for volumeFraction1
Phase-1 volume fraction = 0  Min(volumeFraction1) = 0  Max(volumeFraction1) = 0
 max: rho1 1000 min: 1000
 max: rho2 1.85123 min: 0.357374
DILUPBiCGStab:  Solving for T, Initial residual = 0.00540911, Final residual = 1.40221e-18, No Iterations 1
 C1 116.777 C2 0.98986
DILUPBiCGStab:  Solving for p_rgh, Initial residual = 0.00239924, Final residual = 2.66324e-19, No Iterations 1
max/min kappa: 1/0
GAMGPCG:  Solving for pcorr, Initial residual = 0.999873, Final residual = 2.0915e-14, No Iterations 1
PIMPLE: iteration 3
MULES: Solving for volumeFraction1
Phase-1 volume fraction = 0  Min(volumeFraction1) = 0  Max(volumeFraction1) = 0
 max: rho1 1000 min: 1000
 max: rho2 1.85129 min: 0.355218
DILUPBiCGStab:  Solving for T, Initial residual = 0.00589117, Final residual = 1.00345e-18, No Iterations 1
 C1 115.513 C2 0.979144
DILUPBiCGStab:  Solving for p_rgh, Initial residual = 0.00262182, Final residual = 5.56976e-19, No Iterations 1
max/min kappa: 1/0
GAMGPCG:  Solving for pcorr, Initial residual = 0.999854, Final residual = 5.67469e-14, No Iterations 1
ExecutionTime = 0.1 s  ClockTime = 0 s

Courant Number mean: 0.254052 max: 0.29227
deltaT = 0.000662382
Time = 0.00493831

diagonal:  Solving for rho1, Initial residual = 0, Final residual = 0, No Iterations 0
diagonal:  Solving for rho2, Initial residual = 0, Final residual = 0, No Iterations 0
PIMPLE: iteration 1
MULES: Solving for volumeFraction1
Phase-1 volume fraction = 0  Min(volumeFraction1) = 0  Max(volumeFraction1) = 0
 max: rho1 1130.68 min: 879.891
 max: rho2 1.98259 min: 0.294858
DILUPBiCGStab:  Solving for T, Initial residual = 0.0317517, Final residual = 5.05516e-18, No Iterations 1
 C1 118.302 C2 1.00279
DILUPBiCGStab:  Solving for p_rgh, Initial residual = 0.0608285, Final residual = 8.76661e-18, No Iterations 1
max/min kappa: 1/0
GAMGPCG:  Solving for pcorr, Initial residual = 0.99988, Final residual = 1.83298e-13, No Iterations 1
PIMPLE: iteration 2
MULES: Solving for volumeFraction1
Phase-1 volume fraction = 0  Min(volumeFraction1) = 0  Max(volumeFraction1) = 0
 max: rho1 1000 min: 1000
 max: rho2 1.98238 min: 0.307889
DILUPBiCGStab:  Solving for T, Initial residual = 0.0041894, Final residual = 9.17278e-20, No Iterations 1
 C1 118.617 C2 1.00546
DILUPBiCGStab:  Solving for p_rgh, Initial residual = 0.00177725, Final residual = 3.93342e-20, No Iterations 1
max/min kappa: 1/0
GAMGPCG:  Solving for pcorr, Initial residual = 0.99988, Final residual = 1.23396e-13, No Iterations 1
PIMPLE: iteration 3
MULES: Solving for volumeFraction1
Phase-1 volume fraction = 0  Min(volumeFraction1) = 0  Max(volumeFraction1) = 0
 max: rho1 1000 min: 1000
 max: rho2 1.98245 min: 0.305904
DILUPBiCGStab:  Solving for T, Initial residual = 0.00522121, Final residual = 7.05991e-20, No Iterations 1
 C1 117.212 C2 0.993549
DILUPBiCGStab:  Solving for p_rgh, Initial residual = 0.00220314, Final residual = 1.57945e-19, No Iterations 1
max/min kappa: 1/0
GAMGPCG:  Solving for pcorr, Initial residual = 0.999873, Final residual = 3.71381e-14, No Iterations 1
ExecutionTime = 0.11 s  ClockTime = 0 s

Courant Number mean: 0.26049 max: 0.288572
deltaT = 0.000687496
Time = 0.00562581

diagonal:  Solving for rho1, Initial residual = 0, Final residual = 0, No Iterations 0
diagonal:  Solving for rho2, Initial residual = 0, Final residual = 0, No Iterations 0
PIMPLE: iteration 1
MULES: Solving for volumeFraction1
Phase-1 volume fraction = 0  Min(volumeFraction1) = 0  Max(volumeFraction1) = 0
 max: rho1 1135.27 min: 880.534
 max: rho2 2.11858 min: 0.255255
DILUPBiCGStab:  Solving for T, Initial residual = 0.0293277, Final residual = 5.63527e-19, No Iterations 1
 C1 119.315 C2 1.01138
DILUPBiCGStab:  Solving for p_rgh, Initial residual = 0.0562135, Final residual = 1.36751e-18, No Iterations 1
max/min kappa: 1/0
GAMGPCG:  Solving for pcorr, Initial residual = 0.999859, Final residual = 1.06385e-13, No Iterations 1
PIMPLE: iteration 2
MULES: Solving for volumeFraction1
Phase-1 volume fraction = 0  Min(volumeFraction1) = 0  Max(volumeFraction1) = 0
 max: rho1 1000 min: 1000
 max: rho2 2.11832 min: 0.266907
DILUPBiCGStab:  Solving for T, Initial residual = 0.00341099, Final residual = 9.64878e-20, No Iterations 1
 C1 119.602 C2 1.01381
DILUPBiCGStab:  Solving for p_rgh, Initial residual = 0.00220315, Final residual = 2.55739e-19, No Iterations 1
max/min kappa: 1/0
GAMGPCG:  Solving for pcorr, Initial residual = 0.999868, Final residual = 4.29525e-14, No Iterations 1
PIMPLE: iteration 3
MULES: Solving for volumeFraction1
Phase-1 volume fraction = 0  Min(volumeFraction1) = 0  Max(volumeFraction1) = 0
 max: rho1 1000 min: 1000
 max: rho2 2.11839 min: 0.264964
DILUPBiCGStab:  Solving for T, Initial residual = 0.00417615, Final residual = 5.12039e-19, No Iterations 1
 C1 118.188 C2 1.00182
DILUPBiCGStab:  Solving for p_rgh, Initial residual = 0.00164538, Final residual = 1.22649e-19, No Iterations 1
max/min kappa: 1/0
GAMGPCG:  Solving for pcorr, Initial residual = 0.999865, Final residual = 1.0632e-13, No Iterations 1
ExecutionTime = 0.12 s  ClockTime = 0 s

Courant Number mean: 0.269777 max: 0.285615
deltaT = 0.000721871
Time = 0.00634768

diagonal:  Solving for rho1, Initial residual = 0, Final residual = 0, No Iterations 0
diagonal:  Solving for rho2, Initial residual = 0, Final residual = 0, No Iterations 0
PIMPLE: iteration 1
MULES: Solving for volumeFraction1
Phase-1 volume fraction = 0  Min(volumeFraction1) = 0  Max(volumeFraction1) = 0
 max: rho1 1141.58 min: 880.85
 max: rho2 2.26114 min: 0.222443
DILUPBiCGStab:  Solving for T, Initial residual = 0.0280914, Final residual = 1.66953e-19, No Iterations 1
 C1 119.409 C2 1.01217
DILUPBiCGStab:  Solving for p_rgh, Initial residual = 0.0528714, Final residual = 1.98063e-18, No Iterations 1
max/min kappa: 1/0
GAMGPCG:  Solving for pcorr, Initial residual = 0.999864, Final residual = 1.31663e-13, No Iterations 1
PIMPLE: iteration 2
MULES: Solving for volumeFraction1
Phase-1 volume fraction = 0  Min(volumeFraction1) = 0  Max(volumeFraction1) = 0
 max: rho1 1000 min: 1000
 max: rho2 2.26081 min: 0.232659
DILUPBiCGStab:  Solving for T, Initial residual = 0.00353865, Final residual = 6.79335e-20, No Iterations 1
 C1 119.731 C2 1.0149
DILUPBiCGStab:  Solving for p_rgh, Initial residual = 0.00247279, Final residual = 1.79912e-19, No Iterations 1
max/min kappa: 1/0
GAMGPCG:  Solving for pcorr, Initial residual = 0.999835, Final residual = 1.50228e-13, No Iterations 1
PIMPLE: iteration 3
MULES: Solving for volumeFraction1
Phase-1 volume fraction = 0  Min(volumeFraction1) = 0  Max(volumeFraction1) = 0
 max: rho1 1000 min: 1000
 max: rho2 2.26088 min: 0.230822
DILUPBiCGStab:  Solving for T, Initial residual = 0.00302103, Final residual = 4.09986e-19, No Iterations 1
 C1 118.459 C2 1.00412
DILUPBiCGStab:  Solving for p_rgh, Initial residual = 0.00145346, Final residual = 9.84818e-20, No Iterations 1
max/min kappa: 1/0
GAMGPCG:  Solving for pcorr, Initial residual = 0.999859, Final residual = 1.2465e-13, No Iterations 1
ExecutionTime = 0.13 s  ClockTime = 0 s

Courant Number mean: 0.2826 max: 0.288767
deltaT = 0.000748189
Time = 0.00709587

diagonal:  Solving for rho1, Initial residual = 0, Final residual = 0, No Iterations 0
diagonal:  Solving for rho2, Initial residual = 0, Final residual = 0, No Iterations 0
PIMPLE: iteration 1
MULES: Solving for volumeFraction1
Phase-1 volume fraction = 0  Min(volumeFraction1) = 0  Max(volumeFraction1) = 0
 max: rho1 1146.17 min: 883.716
 max: rho2 2.40859 min: 0.195812
DILUPBiCGStab:  Solving for T, Initial residual = 0.0274417, Final residual = 3.03169e-18, No Iterations 1
 C1 118.826 C2 1.00723
DILUPBiCGStab:  Solving for p_rgh, Initial residual = 0.0491968, Final residual = 4.53993e-18, No Iterations 1
max/min kappa: 1/0
GAMGPCG:  Solving for pcorr, Initial residual = 0.999849, Final residual = 2.29655e-13, No Iterations 1
PIMPLE: iteration 2
MULES: Solving for volumeFraction1
Phase-1 volume fraction = 0  Min(volumeFraction1) = 0  Max(volumeFraction1) = 0
 max: rho1 1000 min: 1000
 max: rho2 2.40826 min: 0.204278
DILUPBiCGStab:  Solving for T, Initial residual = 0.0040002, Final residual = 1.95028e-19, No Iterations 1
 C1 119.183 C2 1.01026
DILUPBiCGStab:  Solving for p_rgh, Initial residual = 0.00245312, Final residual = 3.52706e-19, No Iterations 1
max/min kappa: 1/0
GAMGPCG:  Solving for pcorr, Initial residual = 0.999843, Final residual = 1.15497e-13, No Iterations 1
PIMPLE: iteration 3
MULES: Solving for volumeFraction1
Phase-1 volume fraction = 0  Min(volumeFraction1) = 0  Max(volumeFraction1) = 0
 max: rho1 1000 min: 1000
 max: rho2 2.40834 min: 0.202709
DILUPBiCGStab:  Solving for T, Initial residual = 0.00267728, Final residual = 4.74029e-19, No Iterations 1
 C1 118.16 C2 1.00158
DILUPBiCGStab:  Solving for p_rgh, Initial residual = 0.00145207, Final residual = 9.9107e-20, No Iterations 1
max/min kappa: 1/0
GAMGPCG:  Solving for pcorr, Initial residual = 0.999865, Final residual = 1.89166e-14, No Iterations 1
ExecutionTime = 0.13 s  ClockTime = 0 s

Courant Number mean: 0.292197 max: 0.299279
deltaT = 0.000748189
Time = 0.00784406

diagonal:  Solving for rho1, Initial residual = 0, Final residual = 0, No Iterations 0
diagonal:  Solving for rho2, Initial residual = 0, Final residual = 0, No Iterations 0
PIMPLE: iteration 1
MULES: Solving for volumeFraction1
Phase-1 volume fraction = 0  Min(volumeFraction1) = 0  Max(volumeFraction1) = 0
 max: rho1 1145.56 min: 891.291
 max: rho2 2.55582 min: 0.174826
DILUPBiCGStab:  Solving for T, Initial residual = 0.0269914, Final residual = 2.5167e-19, No Iterations 1
 C1 117.855 C2 0.998998
DILUPBiCGStab:  Solving for p_rgh, Initial residual = 0.0443633, Final residual = 1.11547e-18, No Iterations 1
max/min kappa: 1/0
GAMGPCG:  Solving for pcorr, Initial residual = 0.999849, Final residual = 8.57776e-14, No Iterations 1
PIMPLE: iteration 2
MULES: Solving for volumeFraction1
Phase-1 volume fraction = 0  Min(volumeFraction1) = 0  Max(volumeFraction1) = 0
 max: rho1 1000 min: 1000
 max: rho2 2.55562 min: 0.181274
DILUPBiCGStab:  Solving for T, Initial residual = 0.00389694, Final residual = 2.95739e-19, No Iterations 1
 C1 118.213 C2 1.00203
DILUPBiCGStab:  Solving for p_rgh, Initial residual = 0.00210561, Final residual = 1.69986e-19, No Iterations 1
max/min kappa: 1/0
GAMGPCG:  Solving for pcorr, Initial residual = 0.999854, Final residual = 4.94391e-14, No Iterations 1
PIMPLE: iteration 3
MULES: Solving for volumeFraction1
Phase-1 volume fraction = 0  Min(volumeFraction1) = 0  Max(volumeFraction1) = 0
 max: rho1 1000 min: 1000
 max: rho2 2.55569 min: 0.180106
DILUPBiCGStab:  Solving for T, Initial residual = 0.00240884, Final residual = 1.77352e-19, No Iterations 1
 C1 117.482 C2 0.995841
DILUPBiCGStab:  Solving for p_rgh, Initial residual = 0.00134504, Final residual = 1.41609e-19, No Iterations 1
max/min kappa: 1/0
GAMGPCG:  Solving for pcorr, Initial residual = 0.999872, Final residual = 9.88787e-14, No Iterations 1
ExecutionTime = 0.14 s  ClockTime = 0 s

Courant Number mean: 0.291506 max: 0.299276
deltaT = 0.000748189
Time = 0.00859225

diagonal:  Solving for rho1, Initial residual = 0, Final residual = 0, No Iterations 0
diagonal:  Solving for rho2, Initial residual = 0, Final residual = 0, No Iterations 0
PIMPLE: iteration 1
MULES: Solving for volumeFraction1
Phase-1 volume fraction = 0  Min(volumeFraction1) = 0  Max(volumeFraction1) = 0
 max: rho1 1145.02 min: 898.767
 max: rho2 2.70305 min: 0.157583
DILUPBiCGStab:  Solving for T, Initial residual = 0.0267837, Final residual = 1.85578e-18, No Iterations 1
 C1 116.734 C2 0.989496
DILUPBiCGStab:  Solving for p_rgh, Initial residual = 0.0402536, Final residual = 1.94044e-18, No Iterations 1
max/min kappa: 1/0
GAMGPCG:  Solving for pcorr, Initial residual = 0.999837, Final residual = 1.01806e-13, No Iterations 1
PIMPLE: iteration 2
MULES: Solving for volumeFraction1
Phase-1 volume fraction = 0  Min(volumeFraction1) = 0  Max(volumeFraction1) = 0
 max: rho1 1000 min: 1000
 max: rho2 2.70286 min: 0.162513
DILUPBiCGStab:  Solving for T, Initial residual = 0.00360128, Final residual = 5.04003e-19, No Iterations 1
 C1 117.085 C2 0.992469
DILUPBiCGStab:  Solving for p_rgh, Initial residual = 0.00175139, Final residual = 2.08157e-19, No Iterations 1
max/min kappa: 1/0
GAMGPCG:  Solving for pcorr, Initial residual = 0.999836, Final residual = 1.42929e-13, No Iterations 1
PIMPLE: iteration 3
MULES: Solving for volumeFraction1
Phase-1 volume fraction = 0  Min(volumeFraction1) = 0  Max(volumeFraction1) = 0
 max: rho1 1000 min: 1000
 max: rho2 2.70291 min: 0.161653
DILUPBiCGStab:  Solving for T, Initial residual = 0.00217994, Final residual = 1.5633e-19, No Iterations 1
 C1 116.575 C2 0.988146
DILUPBiCGStab:  Solving for p_rgh, Initial residual = 0.00121041, Final residual = 2.41854e-19, No Iterations 1
max/min kappa: 1/0
GAMGPCG:  Solving for pcorr, Initial residual = 0.999864, Final residual = 6.41299e-14, No Iterations 1
ExecutionTime = 0.15 s  ClockTime = 0 s

Courant Number mean: 0.290816 max: 0.299277
deltaT = 0.000748189
Time = 0.00934044

diagonal:  Solving for rho1, Initial residual = 0, Final residual = 0, No Iterations 0
diagonal:  Solving for rho2, Initial residual = 0, Final residual = 0, No Iterations 0
PIMPLE: iteration 1
MULES: Solving for volumeFraction1
Phase-1 volume fraction = 0  Min(volumeFraction1) = 0  Max(volumeFraction1) = 0
 max: rho1 1144.45 min: 906.013
 max: rho2 2.85016 min: 0.143236
DILUPBiCGStab:  Solving for T, Initial residual = 0.0261832, Final residual = 1.65984e-18, No Iterations 1
 C1 115.563 C2 0.979573
DILUPBiCGStab:  Solving for p_rgh, Initial residual = 0.0367433, Final residual = 5.48753e-18, No Iterations 1
max/min kappa: 1/0
GAMGPCG:  Solving for pcorr, Initial residual = 0.999863, Final residual = 7.33633e-14, No Iterations 1
PIMPLE: iteration 2
MULES: Solving for volumeFraction1
Phase-1 volume fraction = 0  Min(volumeFraction1) = 0  Max(volumeFraction1) = 0
 max: rho1 1000 min: 1000
 max: rho2 2.84997 min: 0.14703
DILUPBiCGStab:  Solving for T, Initial residual = 0.0031965, Final residual = 8.06433e-20, No Iterations 1
 C1 115.892 C2 0.982364
DILUPBiCGStab:  Solving for p_rgh, Initial residual = 0.00152704, Final residual = 2.31479e-19, No Iterations 1
max/min kappa: 1/0
GAMGPCG:  Solving for pcorr, Initial residual = 0.999837, Final residual = 2.10449e-14, No Iterations 1
PIMPLE: iteration 3
MULES: Solving for volumeFraction1
Phase-1 volume fraction = 0  Min(volumeFraction1) = 0  Max(volumeFraction1) = 0
 max: rho1 1000 min: 1000
 max: rho2 2.85 min: 0.146399
DILUPBiCGStab:  Solving for T, Initial residual = 0.00193263, Final residual = 1.90745e-19, No Iterations 1
 C1 115.539 C2 0.979366
DILUPBiCGStab:  Solving for p_rgh, Initial residual = 0.00103877, Final residual = 1.55339e-19, No Iterations 1
max/min kappa: 1/0
GAMGPCG:  Solving for pcorr, Initial residual = 0.999866, Final residual = 1.17394e-14, No Iterations 1
ExecutionTime = 0.16 s  ClockTime = 0 s

Courant Number mean: 0.29012 max: 0.299276
deltaT = 0.000748189
Time = 0.0100886

diagonal:  Solving for rho1, Initial residual = 0, Final residual = 0, No Iterations 0
diagonal:  Solving for rho2, Initial residual = 0, Final residual = 0, No Iterations 0
PIMPLE: iteration 1
MULES: Solving for volumeFraction1
Phase-1 volume fraction = 0  Min(volumeFraction1) = 0  Max(volumeFraction1) = 0
 max: rho1 1143.84 min: 912.931
 max: rho2 2.99712 min: 0.131156
DILUPBiCGStab:  Solving for T, Initial residual = 0.0253734, Final residual = 3.8901e-19, No Iterations 1
 C1 117.177 C2 0.993248
DILUPBiCGStab:  Solving for p_rgh, Initial residual = 0.0337193, Final residual = 4.60603e-18, No Iterations 1
max/min kappa: 1/0
GAMGPCG:  Solving for pcorr, Initial residual = 0.999849, Final residual = 2.30547e-14, No Iterations 1
PIMPLE: iteration 2
MULES: Solving for volumeFraction1
Phase-1 volume fraction = 0  Min(volumeFraction1) = 0  Max(volumeFraction1) = 0
 max: rho1 1000 min: 1000
 max: rho2 2.99693 min: 0.134104
DILUPBiCGStab:  Solving for T, Initial residual = 0.00277944, Final residual = 1.26506e-19, No Iterations 1
 C1 117.33 C2 0.994547
DILUPBiCGStab:  Solving for p_rgh, Initial residual = 0.00139628, Final residual = 7.50691e-20, No Iterations 1
max/min kappa: 1/0
GAMGPCG:  Solving for pcorr, Initial residual = 0.999846, Final residual = 1.10914e-13, No Iterations 1
PIMPLE: iteration 3
MULES: Solving for volumeFraction1
Phase-1 volume fraction = 0  Min(volumeFraction1) = 0  Max(volumeFraction1) = 0
 max: rho1 1000 min: 1000
 max: rho2 2.99695 min: 0.133637
DILUPBiCGStab:  Solving for T, Initial residual = 0.00165809, Final residual = 9.19633e-20, No Iterations 1
 C1 117.382 C2 0.99499
DILUPBiCGStab:  Solving for p_rgh, Initial residual = 0.000845939, Final residual = 4.8526e-20, No Iterations 1
max/min kappa: 1/0
GAMGPCG:  Solving for pcorr, Initial residual = 0.999853, Final residual = 8.63547e-14, No Iterations 1
ExecutionTime = 0.17 s  ClockTime = 0 s

Courant Number mean: 0.289416 max: 0.299276
deltaT = 0.000748189
Time = 0.0108368

diagonal:  Solving for rho1, Initial residual = 0, Final residual = 0, No Iterations 0
diagonal:  Solving for rho2, Initial residual = 0, Final residual = 0, No Iterations 0
PIMPLE: iteration 1
MULES: Solving for volumeFraction1
Phase-1 volume fraction = 0  Min(volumeFraction1) = 0  Max(volumeFraction1) = 0
 max: rho1 1143.19 min: 919.458
 max: rho2 3.14393 min: 0.120877
DILUPBiCGStab:  Solving for T, Initial residual = 0.0244834, Final residual = 2.66143e-18, No Iterations 1
 C1 119.214 C2 1.01052
DILUPBiCGStab:  Solving for p_rgh, Initial residual = 0.0310869, Final residual = 3.56123e-18, No Iterations 1
max/min kappa: 1/0
GAMGPCG:  Solving for pcorr, Initial residual = 0.99986, Final residual = 8.04579e-14, No Iterations 1
PIMPLE: iteration 2
MULES: Solving for volumeFraction1
Phase-1 volume fraction = 0  Min(volumeFraction1) = 0  Max(volumeFraction1) = 0
 max: rho1 1000 min: 1000
 max: rho2 3.14375 min: 0.123193
DILUPBiCGStab:  Solving for T, Initial residual = 0.00258312, Final residual = 1.05899e-19, No Iterations 1
 C1 119.359 C2 1.01175
DILUPBiCGStab:  Solving for p_rgh, Initial residual = 0.00125759, Final residual = 1.99704e-19, No Iterations 1
max/min kappa: 1/0
GAMGPCG:  Solving for pcorr, Initial residual = 0.999849, Final residual = 6.94792e-14, No Iterations 1
PIMPLE: iteration 3
MULES: Solving for volumeFraction1
Phase-1 volume fraction = 0  Min(volumeFraction1) = 0  Max(volumeFraction1) = 0
 max: rho1 1000 min: 1000
 max: rho2 3.14375 min: 0.122844
DILUPBiCGStab:  Solving for T, Initial residual = 0.00137333, Final residual = 5.53374e-20, No Iterations 1
 C1 119.409 C2 1.01217
DILUPBiCGStab:  Solving for p_rgh, Initial residual = 0.000656525, Final residual = 3.01116e-20, No Iterations 1
max/min kappa: 1/0
GAMGPCG:  Solving for pcorr, Initial residual = 0.999843, Final residual = 6.89936e-14, No Iterations 1
ExecutionTime = 0.17 s  ClockTime = 0 s

Courant Number mean: 0.288706 max: 0.299276
deltaT = 0.000748189
Time = 0.011585

diagonal:  Solving for rho1, Initial residual = 0, Final residual = 0, No Iterations 0
diagonal:  Solving for rho2, Initial residual = 0, Final residual = 0, No Iterations 0
PIMPLE: iteration 1
MULES: Solving for volumeFraction1
Phase-1 volume fraction = 0  Min(volumeFraction1) = 0  Max(volumeFraction1) = 0
 max: rho1 1142.5 min: 925.551
 max: rho2 3.29059 min: 0.112048
DILUPBiCGStab:  Solving for T, Initial residual = 0.0235984, Final residual = 2.62049e-18, No Iterations 1
 C1 121.243 C2 1.02771
DILUPBiCGStab:  Solving for p_rgh, Initial residual = 0.0287726, Final residual = 3.52475e-18, No Iterations 1
max/min kappa: 1/0
GAMGPCG:  Solving for pcorr, Initial residual = 0.999864, Final residual = 1.46267e-13, No Iterations 1
PIMPLE: iteration 2
MULES: Solving for volumeFraction1
Phase-1 volume fraction = 0  Min(volumeFraction1) = 0  Max(volumeFraction1) = 0
 max: rho1 1000 min: 1000
 max: rho2 3.29041 min: 0.113887
DILUPBiCGStab:  Solving for T, Initial residual = 0.00238287, Final residual = 3.19418e-19, No Iterations 1
 C1 121.38 C2 1.02888
DILUPBiCGStab:  Solving for p_rgh, Initial residual = 0.00110972, Final residual = 1.18019e-19, No Iterations 1
max/min kappa: 1/0
GAMGPCG:  Solving for pcorr, Initial residual = 0.999854, Final residual = 6.18368e-14, No Iterations 1
PIMPLE: iteration 3
MULES: Solving for volumeFraction1
Phase-1 volume fraction = 0  Min(volumeFraction1) = 0  Max(volumeFraction1) = 0
 max: rho1 1000 min: 1000
 max: rho2 3.2904 min: 0.113858
DILUPBiCGStab:  Solving for T, Initial residual = 0.00119343, Final residual = 3.77399e-19, No Iterations 1
 C1 121.427 C2 1.02928
DILUPBiCGStab:  Solving for p_rgh, Initial residual = 0.000575042, Final residual = 2.39597e-20, No Iterations 1
max/min kappa: 1/0
GAMGPCG:  Solving for pcorr, Initial residual = 0.999854, Final residual = 8.57652e-14, No Iterations 1
ExecutionTime = 0.18 s  ClockTime = 0 s

Courant Number mean: 0.28792 max: 0.299276
deltaT = 0.000748189
Time = 0.0123332

diagonal:  Solving for rho1, Initial residual = 0, Final residual = 0, No Iterations 0
diagonal:  Solving for rho2, Initial residual = 0, Final residual = 0, No Iterations 0
PIMPLE: iteration 1
MULES: Solving for volumeFraction1
Phase-1 volume fraction = 0  Min(volumeFraction1) = 0  Max(volumeFraction1) = 0
 max: rho1 1141.76 min: 931.105
 max: rho2 3.43708 min: 0.104644
DILUPBiCGStab:  Solving for T, Initial residual = 0.0227404, Final residual = 1.56869e-19, No Iterations 1
 C1 123.26 C2 1.04482
DILUPBiCGStab:  Solving for p_rgh, Initial residual = 0.0267262, Final residual = 2.68636e-18, No Iterations 1
max/min kappa: 1/0
GAMGPCG:  Solving for pcorr, Initial residual = 0.999859, Final residual = 1.94189e-14, No Iterations 1
PIMPLE: iteration 2
MULES: Solving for volumeFraction1
Phase-1 volume fraction = 0  Min(volumeFraction1) = 0  Max(volumeFraction1) = 0
 max: rho1 1000 min: 1000
 max: rho2 3.43691 min: 0.106145
DILUPBiCGStab:  Solving for T, Initial residual = 0.00222074, Final residual = 2.33895e-19, No Iterations 1
 C1 123.39 C2 1.04592
DILUPBiCGStab:  Solving for p_rgh, Initial residual = 0.00100695, Final residual = 1.45251e-19, No Iterations 1
max/min kappa: 1/0
GAMGPCG:  Solving for pcorr, Initial residual = 0.999854, Final residual = 2.54178e-13, No Iterations 1
PIMPLE: iteration 3
MULES: Solving for volumeFraction1
Phase-1 volume fraction = 0  Min(volumeFraction1) = 0  Max(volumeFraction1) = 0
 max: rho1 1000 min: 1000
 max: rho2 3.43689 min: 0.106164
DILUPBiCGStab:  Solving for T, Initial residual = 0.0011064, Final residual = 9.41864e-20, No Iterations 1
 C1 123.435 C2 1.0463
DILUPBiCGStab:  Solving for p_rgh, Initial residual = 0.00050734, Final residual = 5.76931e-20, No Iterations 1
max/min kappa: 1/0
GAMGPCG:  Solving for pcorr, Initial residual = 0.999853, Final residual = 1.19807e-13, No Iterations 1
ExecutionTime = 0.19 s  ClockTime = 0 s

Courant Number mean: 0.287118 max: 0.299276
deltaT = 0.000748189
Time = 0.0130814

diagonal:  Solving for rho1, Initial residual = 0, Final residual = 0, No Iterations 0
diagonal:  Solving for rho2, Initial residual = 0, Final residual = 0, No Iterations 0
PIMPLE: iteration 1
MULES: Solving for volumeFraction1
Phase-1 volume fraction = 0  Min(volumeFraction1) = 0  Max(volumeFraction1) = 0
 max: rho1 1140.98 min: 936.149
 max: rho2 3.58341 min: 0.0984197
DILUPBiCGStab:  Solving for T, Initial residual = 0.0219448, Final residual = 1.64318e-19, No Iterations 1
 C1 125.265 C2 1.06181
DILUPBiCGStab:  Solving for p_rgh, Initial residual = 0.0248992, Final residual = 2.67599e-18, No Iterations 1
max/min kappa: 1/0
GAMGPCG:  Solving for pcorr, Initial residual = 0.99984, Final residual = 1.03572e-13, No Iterations 1
PIMPLE: iteration 2
MULES: Solving for volumeFraction1
Phase-1 volume fraction = 0  Min(volumeFraction1) = 0  Max(volumeFraction1) = 0
 max: rho1 1000 min: 1000
 max: rho2 3.58325 min: 0.0995853
DILUPBiCGStab:  Solving for T, Initial residual = 0.00204813, Final residual = 2.83987e-19, No Iterations 1
 C1 125.388 C2 1.06285
DILUPBiCGStab:  Solving for p_rgh, Initial residual = 0.000922689, Final residual = 9.78297e-20, No Iterations 1
max/min kappa: 1/0
GAMGPCG:  Solving for pcorr, Initial residual = 0.999847, Final residual = 9.88049e-14, No Iterations 1
PIMPLE: iteration 3
MULES: Solving for volumeFraction1
Phase-1 volume fraction = 0  Min(volumeFraction1) = 0  Max(volumeFraction1) = 0
 max: rho1 1000 min: 1000
 max: rho2 3.58321 min: 0.0996071
DILUPBiCGStab:  Solving for T, Initial residual = 0.00101975, Final residual = 7.33301e-20, No Iterations 1
 C1 125.43 C2 1.06321
DILUPBiCGStab:  Solving for p_rgh, Initial residual = 0.000462784, Final residual = 3.074e-20, No Iterations 1
max/min kappa: 1/0
GAMGPCG:  Solving for pcorr, Initial residual = 0.999849, Final residual = 1.3147e-13, No Iterations 1
ExecutionTime = 0.2 s  ClockTime = 0 s

Courant Number mean: 0.286364 max: 0.299276
deltaT = 0.000748189
Time = 0.0138296

diagonal:  Solving for rho1, Initial residual = 0, Final residual = 0, No Iterations 0
diagonal:  Solving for rho2, Initial residual = 0, Final residual = 0, No Iterations 0
PIMPLE: iteration 1
MULES: Solving for volumeFraction1
Phase-1 volume fraction = 0  Min(volumeFraction1) = 0  Max(volumeFraction1) = 0
 max: rho1 1140.14 min: 940.721
 max: rho2 3.72958 min: 0.0930151
DILUPBiCGStab:  Solving for T, Initial residual = 0.0213316, Final residual = 1.73381e-19, No Iterations 1
 C1 127.255 C2 1.07868
DILUPBiCGStab:  Solving for p_rgh, Initial residual = 0.0232577, Final residual = 1.06459e-18, No Iterations 1
max/min kappa: 1/0
GAMGPCG:  Solving for pcorr, Initial residual = 0.999861, Final residual = 8.11926e-15, No Iterations 1
PIMPLE: iteration 2
MULES: Solving for volumeFraction1
Phase-1 volume fraction = 0  Min(volumeFraction1) = 0  Max(volumeFraction1) = 0
 max: rho1 1000 min: 1000
 max: rho2 3.72942 min: 0.093937
DILUPBiCGStab:  Solving for T, Initial residual = 0.00189361, Final residual = 2.45283e-19, No Iterations 1
 C1 127.37 C2 1.07965
DILUPBiCGStab:  Solving for p_rgh, Initial residual = 0.000846461, Final residual = 9.03063e-20, No Iterations 1
max/min kappa: 1/0
GAMGPCG:  Solving for pcorr, Initial residual = 0.999859, Final residual = 1.63117e-13, No Iterations 1
PIMPLE: iteration 3
MULES: Solving for volumeFraction1
Phase-1 volume fraction = 0  Min(volumeFraction1) = 0  Max(volumeFraction1) = 0
 max: rho1 1000 min: 1000
 max: rho2 3.72937 min: 0.0939581
DILUPBiCGStab:  Solving for T, Initial residual = 0.000934537, Final residual = 8.75404e-20, No Iterations 1
 C1 127.409 C2 1.07998
DILUPBiCGStab:  Solving for p_rgh, Initial residual = 0.000429902, Final residual = 3.02166e-20, No Iterations 1
max/min kappa: 1/0
GAMGPCG:  Solving for pcorr, Initial residual = 0.999847, Final residual = 8.88296e-14, No Iterations 1
ExecutionTime = 0.2 s  ClockTime = 0 s

Courant Number mean: 0.285643 max: 0.299276
deltaT = 0.000748189
Time = 0.0145778

diagonal:  Solving for rho1, Initial residual = 0, Final residual = 0, No Iterations 0
diagonal:  Solving for rho2, Initial residual = 0, Final residual = 0, No Iterations 0
PIMPLE: iteration 1
MULES: Solving for volumeFraction1
Phase-1 volume fraction = 0  Min(volumeFraction1) = 0  Max(volumeFraction1) = 0
 max: rho1 1139.25 min: 944.857
 max: rho2 3.87556 min: 0.0882843
DILUPBiCGStab:  Solving for T, Initial residual = 0.0207723, Final residual = 1.8168e-18, No Iterations 1
 C1 129.226 C2 1.09539
DILUPBiCGStab:  Solving for p_rgh, Initial residual = 0.0217753, Final residual = 1.75144e-18, No Iterations 1
max/min kappa: 1/0
GAMGPCG:  Solving for pcorr, Initial residual = 0.999846, Final residual = 1.60508e-13, No Iterations 1
PIMPLE: iteration 2
MULES: Solving for volumeFraction1
Phase-1 volume fraction = 0  Min(volumeFraction1) = 0  Max(volumeFraction1) = 0
 max: rho1 1000 min: 1000
 max: rho2 3.87541 min: 0.0890258
DILUPBiCGStab:  Solving for T, Initial residual = 0.00173725, Final residual = 2.57343e-19, No Iterations 1
 C1 129.333 C2 1.0963
DILUPBiCGStab:  Solving for p_rgh, Initial residual = 0.000766404, Final residual = 1.06216e-19, No Iterations 1
max/min kappa: 1/0
GAMGPCG:  Solving for pcorr, Initial residual = 0.999851, Final residual = 1.78036e-14, No Iterations 1
PIMPLE: iteration 3
MULES: Solving for volumeFraction1
Phase-1 volume fraction = 0  Min(volumeFraction1) = 0  Max(volumeFraction1) = 0
 max: rho1 1000 min: 1000
 max: rho2 3.87535 min: 0.0890447
DILUPBiCGStab:  Solving for T, Initial residual = 0.000852484, Final residual = 2.40039e-19, No Iterations 1
 C1 129.37 C2 1.09661
DILUPBiCGStab:  Solving for p_rgh, Initial residual = 0.000395394, Final residual = 9.71261e-20, No Iterations 1
max/min kappa: 1/0
GAMGPCG:  Solving for pcorr, Initial residual = 0.999856, Final residual = 2.78632e-13, No Iterations 1
ExecutionTime = 0.21 s  ClockTime = 0 s

Courant Number mean: 0.284946 max: 0.299276
deltaT = 0.000748189
Time = 0.015326

diagonal:  Solving for rho1, Initial residual = 0, Final residual = 0, No Iterations 0
diagonal:  Solving for rho2, Initial residual = 0, Final residual = 0, No Iterations 0
PIMPLE: iteration 1
MULES: Solving for volumeFraction1
Phase-1 volume fraction = 0  Min(volumeFraction1) = 0  Max(volumeFraction1) = 0
 max: rho1 1138.29 min: 948.598
 max: rho2 4.02138 min: 0.0841137
DILUPBiCGStab:  Solving for T, Initial residual = 0.0202132, Final residual = 7.53201e-20, No Iterations 1
 C1 131.176 C2 1.11191
DILUPBiCGStab:  Solving for p_rgh, Initial residual = 0.0204305, Final residual = 1.36128e-18, No Iterations 1
max/min kappa: 1/0
GAMGPCG:  Solving for pcorr, Initial residual = 0.999849, Final residual = 7.04631e-14, No Iterations 1
PIMPLE: iteration 2
MULES: Solving for volumeFraction1
Phase-1 volume fraction = 0  Min(volumeFraction1) = 0  Max(volumeFraction1) = 0
 max: rho1 1000 min: 1000
 max: rho2 4.02123 min: 0.0847189
DILUPBiCGStab:  Solving for T, Initial residual = 0.00157941, Final residual = 1.69375e-19, No Iterations 1
 C1 131.275 C2 1.11276
DILUPBiCGStab:  Solving for p_rgh, Initial residual = 0.000684436, Final residual = 4.21327e-20, No Iterations 1
max/min kappa: 1/0
GAMGPCG:  Solving for pcorr, Initial residual = 0.999842, Final residual = 2.58341e-13, No Iterations 1
PIMPLE: iteration 3
MULES: Solving for volumeFraction1
Phase-1 volume fraction = 0  Min(volumeFraction1) = 0  Max(volumeFraction1) = 0
 max: rho1 1000 min: 1000
 max: rho2 4.02116 min: 0.0847353
DILUPBiCGStab:  Solving for T, Initial residual = 0.000771591, Final residual = 6.4705e-20, No Iterations 1
 C1 131.309 C2 1.11305
DILUPBiCGStab:  Solving for p_rgh, Initial residual = 0.000359227, Final residual = 8.59428e-20, No Iterations 1
max/min kappa: 1/0
GAMGPCG:  Solving for pcorr, Initial residual = 0.999839, Final residual = 2.3413e-13, No Iterations 1
ExecutionTime = 0.22 s  ClockTime = 0 s

Courant Number mean: 0.284264 max: 0.299276
deltaT = 0.000748189
Time = 0.0160741

diagonal:  Solving for rho1, Initial residual = 0, Final residual = 0, No Iterations 0
diagonal:  Solving for rho2, Initial residual = 0, Final residual = 0, No Iterations 0
PIMPLE: iteration 1
MULES: Solving for volumeFraction1
Phase-1 volume fraction = 0  Min(volumeFraction1) = 0  Max(volumeFraction1) = 0
 max: rho1 1137.28 min: 951.982
 max: rho2 4.16701 min: 0.0804134
DILUPBiCGStab:  Solving for T, Initial residual = 0.0196456, Final residual = 3.04158e-18, No Iterations 1
 C1 133.1 C2 1.12823
DILUPBiCGStab:  Solving for p_rgh, Initial residual = 0.0192055, Final residual = 4.78393e-19, No Iterations 1
max/min kappa: 1/0
GAMGPCG:  Solving for pcorr, Initial residual = 0.999858, Final residual = 3.60878e-13, No Iterations 1
PIMPLE: iteration 2
MULES: Solving for volumeFraction1
Phase-1 volume fraction = 0  Min(volumeFraction1) = 0  Max(volumeFraction1) = 0
 max: rho1 1000 min: 1000
 max: rho2 4.16688 min: 0.0809139
DILUPBiCGStab:  Solving for T, Initial residual = 0.00145272, Final residual = 6.98628e-20, No Iterations 1
 C1 133.192 C2 1.12901
DILUPBiCGStab:  Solving for p_rgh, Initial residual = 0.000618543, Final residual = 4.93338e-20, No Iterations 1
max/min kappa: 1/0
GAMGPCG:  Solving for pcorr, Initial residual = 0.999857, Final residual = 2.28706e-13, No Iterations 1
PIMPLE: iteration 3
MULES: Solving for volumeFraction1
Phase-1 volume fraction = 0  Min(volumeFraction1) = 0  Max(volumeFraction1) = 0
 max: rho1 1000 min: 1000
 max: rho2 4.16679 min: 0.0809279
DILUPBiCGStab:  Solving for T, Initial residual = 0.000691486, Final residual = 5.8629e-20, No Iterations 1
 C1 133.224 C2 1.12927
DILUPBiCGStab:  Solving for p_rgh, Initial residual = 0.000322836, Final residual = 2.57006e-20, No Iterations 1
max/min kappa: 1/0
GAMGPCG:  Solving for pcorr, Initial residual = 0.999863, Final residual = 1.8511e-13, No Iterations 1
ExecutionTime = 0.23 s  ClockTime = 0 s

Courant Number mean: 0.283591 max: 0.299276
deltaT = 0.000748189
Time = 0.0168223

diagonal:  Solving for rho1, Initial residual = 0, Final residual = 0, No Iterations 0
diagonal:  Solving for rho2, Initial residual = 0, Final residual = 0, No Iterations 0
PIMPLE: iteration 1
MULES: Solving for volumeFraction1
Phase-1 volume fraction = 0  Min(volumeFraction1) = 0  Max(volumeFraction1) = 0
 max: rho1 1136.19 min: 953.77
 max: rho2 4.31246 min: 0.0771114
DILUPBiCGStab:  Solving for T, Initial residual = 0.0190726, Final residual = 1.12022e-19, No Iterations 1
 C1 134.996 C2 1.14429
DILUPBiCGStab:  Solving for p_rgh, Initial residual = 0.0180851, Final residual = 2.03492e-18, No Iterations 1
max/min kappa: 1/0
GAMGPCG:  Solving for pcorr, Initial residual = 0.999835, Final residual = 2.65526e-13, No Iterations 1
PIMPLE: iteration 2
MULES: Solving for volumeFraction1
Phase-1 volume fraction = 0  Min(volumeFraction1) = 0  Max(volumeFraction1) = 0
 max: rho1 1000 min: 1000
 max: rho2 4.31234 min: 0.0775302
DILUPBiCGStab:  Solving for T, Initial residual = 0.00133468, Final residual = 7.06742e-20, No Iterations 1
 C1 135.08 C2 1.14501
DILUPBiCGStab:  Solving for p_rgh, Initial residual = 0.000571748, Final residual = 2.94243e-20, No Iterations 1
max/min kappa: 1/0
GAMGPCG:  Solving for pcorr, Initial residual = 0.999864, Final residual = 2.60492e-13, No Iterations 1
PIMPLE: iteration 3
MULES: Solving for volumeFraction1
Phase-1 volume fraction = 0  Min(volumeFraction1) = 0  Max(volumeFraction1) = 0
 max: rho1 1000 min: 1000
 max: rho2 4.31223 min: 0.0775422
DILUPBiCGStab:  Solving for T, Initial residual = 0.000627854, Final residual = 3.78451e-20, No Iterations 1
 C1 135.109 C2 1.14525
DILUPBiCGStab:  Solving for p_rgh, Initial residual = 0.000285989, Final residual = 8.86009e-20, No Iterations 1
max/min kappa: 1/0
GAMGPCG:  Solving for pcorr, Initial residual = 0.999841, Final residual = 1.67378e-13, No Iterations 1
ExecutionTime = 0.24 s  ClockTime = 0 s

Courant Number mean: 0.282922 max: 0.299276
deltaT = 0.000748189
Time = 0.0175705

diagonal:  Solving for rho1, Initial residual = 0, Final residual = 0, No Iterations 0
diagonal:  Solving for rho2, Initial residual = 0, Final residual = 0, No Iterations 0
PIMPLE: iteration 1
MULES: Solving for volumeFraction1
Phase-1 volume fraction = 0  Min(volumeFraction1) = 0  Max(volumeFraction1) = 0
 max: rho1 1135.04 min: 955.517
 max: rho2 4.45774 min: 0.0741498
DILUPBiCGStab:  Solving for T, Initial residual = 0.0185136, Final residual = 1.42652e-18, No Iterations 1
 C1 136.859 C2 1.16009
DILUPBiCGStab:  Solving for p_rgh, Initial residual = 0.0170563, Final residual = 8.69505e-19, No Iterations 1
max/min kappa: 1/0
GAMGPCG:  Solving for pcorr, Initial residual = 0.99985, Final residual = 7.33427e-14, No Iterations 1
PIMPLE: iteration 2
MULES: Solving for volumeFraction1
Phase-1 volume fraction = 0  Min(volumeFraction1) = 0  Max(volumeFraction1) = 0
 max: rho1 1000 min: 1000
 max: rho2 4.45762 min: 0.0745038
DILUPBiCGStab:  Solving for T, Initial residual = 0.00121468, Final residual = 1.51886e-19, No Iterations 1
 C1 136.936 C2 1.16074
DILUPBiCGStab:  Solving for p_rgh, Initial residual = 0.000522645, Final residual = 6.70469e-20, No Iterations 1
max/min kappa: 1/0
GAMGPCG:  Solving for pcorr, Initial residual = 0.999841, Final residual = 1.4881e-13, No Iterations 1
PIMPLE: iteration 3
MULES: Solving for volumeFraction1
Phase-1 volume fraction = 0  Min(volumeFraction1) = 0  Max(volumeFraction1) = 0
 max: rho1 1000 min: 1000
 max: rho2 4.4575 min: 0.0745141
DILUPBiCGStab:  Solving for T, Initial residual = 0.000576122, Final residual = 3.84897e-20, No Iterations 1
 C1 136.962 C2 1.16096
DILUPBiCGStab:  Solving for p_rgh, Initial residual = 0.000263717, Final residual = 3.65963e-20, No Iterations 1
max/min kappa: 1/0
GAMGPCG:  Solving for pcorr, Initial residual = 0.999864, Final residual = 9.26651e-14, No Iterations 1
ExecutionTime = 0.25 s  ClockTime = 0 s

Courant Number mean: 0.282255 max: 0.299276
deltaT = 0.000748189
Time = 0.0183187

diagonal:  Solving for rho1, Initial residual = 0, Final residual = 0, No Iterations 0
diagonal:  Solving for rho2, Initial residual = 0, Final residual = 0, No Iterations 0
PIMPLE: iteration 1
MULES: Solving for volumeFraction1
Phase-1 volume fraction = 0  Min(volumeFraction1) = 0  Max(volumeFraction1) = 0
 max: rho1 1133.8 min: 957.329
 max: rho2 4.60282 min: 0.071481
DILUPBiCGStab:  Solving for T, Initial residual = 0.0179239, Final residual = 3.933e-18, No Iterations 1
 C1 138.686 C2 1.17557
DILUPBiCGStab:  Solving for p_rgh, Initial residual = 0.0161084, Final residual = 3.12162e-19, No Iterations 1
max/min kappa: 1/0
GAMGPCG:  Solving for pcorr, Initial residual = 0.999819, Final residual = 1.37722e-13, No Iterations 1
PIMPLE: iteration 2
MULES: Solving for volumeFraction1
Phase-1 volume fraction = 0  Min(volumeFraction1) = 0  Max(volumeFraction1) = 0
 max: rho1 1000 min: 1000
 max: rho2 4.60272 min: 0.0717829
DILUPBiCGStab:  Solving for T, Initial residual = 0.00109339, Final residual = 7.26235e-20, No Iterations 1
 C1 138.754 C2 1.17615
DILUPBiCGStab:  Solving for p_rgh, Initial residual = 0.000471982, Final residual = 3.24341e-20, No Iterations 1
max/min kappa: 1/0
GAMGPCG:  Solving for pcorr, Initial residual = 0.999846, Final residual = 1.27141e-13, No Iterations 1
PIMPLE: iteration 3
MULES: Solving for volumeFraction1
Phase-1 volume fraction = 0  Min(volumeFraction1) = 0  Max(volumeFraction1) = 0
 max: rho1 1000 min: 1000
 max: rho2 4.60259 min: 0.0717919
DILUPBiCGStab:  Solving for T, Initial residual = 0.000523542, Final residual = 7.22958e-20, No Iterations 1
 C1 138.778 C2 1.17635
DILUPBiCGStab:  Solving for p_rgh, Initial residual = 0.000243331, Final residual = 2.67567e-20, No Iterations 1
max/min kappa: 1/0
GAMGPCG:  Solving for pcorr, Initial residual = 0.999851, Final residual = 1.54786e-13, No Iterations 1
ExecutionTime = 0.25 s  ClockTime = 0 s

Courant Number mean: 0.281587 max: 0.299276
deltaT = 0.000748189
Time = 0.0190669

diagonal:  Solving for rho1, Initial residual = 0, Final residual = 0, No Iterations 0
diagonal:  Solving for rho2, Initial residual = 0, Final residual = 0, No Iterations 0
PIMPLE: iteration 1
MULES: Solving for volumeFraction1
Phase-1 volume fraction = 0  Min(volumeFraction1) = 0  Max(volumeFraction1) = 0
 max: rho1 1132.48 min: 959.162
 max: rho2 4.74773 min: 0.0690659
DILUPBiCGStab:  Solving for T, Initial residual = 0.0173103, Final residual = 1.24193e-18, No Iterations 1
 C1 140.471 C2 1.1907
DILUPBiCGStab:  Solving for p_rgh, Initial residual = 0.0152322, Final residual = 7.37999e-19, No Iterations 1
max/min kappa: 1/0
GAMGPCG:  Solving for pcorr, Initial residual = 0.999845, Final residual = 1.4822e-13, No Iterations 1
PIMPLE: iteration 2
MULES: Solving for volumeFraction1
Phase-1 volume fraction = 0  Min(volumeFraction1) = 0  Max(volumeFraction1) = 0
 max: rho1 1000 min: 1000
 max: rho2 4.74764 min: 0.0693255
DILUPBiCGStab:  Solving for T, Initial residual = 0.000971869, Final residual = 1.13087e-19, No Iterations 1
 C1 140.532 C2 1.19122
DILUPBiCGStab:  Solving for p_rgh, Initial residual = 0.000420625, Final residual = 6.81365e-20, No Iterations 1
max/min kappa: 1/0
GAMGPCG:  Solving for pcorr, Initial residual = 0.999839, Final residual = 2.59908e-13, No Iterations 1
PIMPLE: iteration 3
MULES: Solving for volumeFraction1
Phase-1 volume fraction = 0  Min(volumeFraction1) = 0  Max(volumeFraction1) = 0
 max: rho1 1000 min: 1000
 max: rho2 4.74749 min: 0.0693335
DILUPBiCGStab:  Solving for T, Initial residual = 0.000470334, Final residual = 3.85431e-20, No Iterations 1
 C1 140.553 C2 1.1914
DILUPBiCGStab:  Solving for p_rgh, Initial residual = 0.000221743, Final residual = 4.54283e-20, No Iterations 1
max/min kappa: 1/0
GAMGPCG:  Solving for pcorr, Initial residual = 0.999861, Final residual = 2.16322e-13, No Iterations 1
ExecutionTime = 0.26 s  ClockTime = 0 s

Courant Number mean: 0.280918 max: 0.299276
deltaT = 0.000748189
Time = 0.0198151

diagonal:  Solving for rho1, Initial residual = 0, Final residual = 0, No Iterations 0
diagonal:  Solving for rho2, Initial residual = 0, Final residual = 0, No Iterations 0
PIMPLE: iteration 1
MULES: Solving for volumeFraction1
Phase-1 volume fraction = 0  Min(volumeFraction1) = 0  Max(volumeFraction1) = 0
 max: rho1 1131.08 min: 960.982
 max: rho2 4.89245 min: 0.066872
DILUPBiCGStab:  Solving for T, Initial residual = 0.0166784, Final residual = 3.38586e-18, No Iterations 1
 C1 142.212 C2 1.20546
DILUPBiCGStab:  Solving for p_rgh, Initial residual = 0.0144199, Final residual = 1.26968e-18, No Iterations 1
max/min kappa: 1/0
GAMGPCG:  Solving for pcorr, Initial residual = 0.999842, Final residual = 1.78838e-13, No Iterations 1
PIMPLE: iteration 2
MULES: Solving for volumeFraction1
Phase-1 volume fraction = 0  Min(volumeFraction1) = 0  Max(volumeFraction1) = 0
 max: rho1 1000 min: 1000
 max: rho2 4.89237 min: 0.0670968
DILUPBiCGStab:  Solving for T, Initial residual = 0.000867866, Final residual = 7.83043e-20, No Iterations 1
 C1 142.265 C2 1.20591
DILUPBiCGStab:  Solving for p_rgh, Initial residual = 0.000384341, Final residual = 2.30034e-20, No Iterations 1
max/min kappa: 1/0
GAMGPCG:  Solving for pcorr, Initial residual = 0.999851, Final residual = 3.07513e-13, No Iterations 1
PIMPLE: iteration 3
MULES: Solving for volumeFraction1
Phase-1 volume fraction = 0  Min(volumeFraction1) = 0  Max(volumeFraction1) = 0
 max: rho1 1000 min: 1000
 max: rho2 4.89107 min: 0.0671039
DILUPBiCGStab:  Solving for T, Initial residual = 0.000437526, Final residual = 5.22799e-20, No Iterations 1
 C1 142.268 C2 1.20594
DILUPBiCGStab:  Solving for p_rgh, Initial residual = 0.000284787, Final residual = 2.6079e-20, No Iterations 1
max/min kappa: 1/0
GAMGPCG:  Solving for pcorr, Initial residual = 0.999855, Final residual = 1.85121e-13, No Iterations 1
ExecutionTime = 0.27 s  ClockTime = 0 s

Courant Number mean: 0.280142 max: 0.299276
deltaT = 0.000748189
Time = 0.0205633

diagonal:  Solving for rho1, Initial residual = 0, Final residual = 0, No Iterations 0
diagonal:  Solving for rho2, Initial residual = 0, Final residual = 0, No Iterations 0
PIMPLE: iteration 1
MULES: Solving for volumeFraction1
Phase-1 volume fraction = 0  Min(volumeFraction1) = 0  Max(volumeFraction1) = 0
 max: rho1 1129.58 min: 962.762
 max: rho2 5.03425 min: 0.0648718
DILUPBiCGStab:  Solving for T, Initial residual = 0.016133, Final residual = 2.52507e-18, No Iterations 1
 C1 143.877 C2 1.21957
DILUPBiCGStab:  Solving for p_rgh, Initial residual = 0.0137697, Final residual = 1.76147e-18, No Iterations 1
max/min kappa: 1/0
GAMGPCG:  Solving for pcorr, Initial residual = 0.999862, Final residual = 2.88802e-13, No Iterations 1
PIMPLE: iteration 2
MULES: Solving for volumeFraction1
Phase-1 volume fraction = 0  Min(volumeFraction1) = 0  Max(volumeFraction1) = 0
 max: rho1 1000 min: 1000
 max: rho2 5.03191 min: 0.0650676
DILUPBiCGStab:  Solving for T, Initial residual = 0.000848834, Final residual = 3.64974e-20, No Iterations 1
 C1 143.894 C2 1.21972
DILUPBiCGStab:  Solving for p_rgh, Initial residual = 0.00104184, Final residual = 1.1333e-19, No Iterations 1
max/min kappa: 1/0
GAMGPCG:  Solving for pcorr, Initial residual = 0.99985, Final residual = 6.43419e-14, No Iterations 1
PIMPLE: iteration 3
MULES: Solving for volumeFraction1
Phase-1 volume fraction = 0  Min(volumeFraction1) = 0  Max(volumeFraction1) = 0
 max: rho1 1000 min: 1000
 max: rho2 5.02385 min: 0.065074
DILUPBiCGStab:  Solving for T, Initial residual = 0.00242851, Final residual = 5.00691e-19, No Iterations 1
 C1 143.816 C2 1.21906
DILUPBiCGStab:  Solving for p_rgh, Initial residual = 0.00126177, Final residual = 7.48058e-20, No Iterations 1
max/min kappa: 1/0
GAMGPCG:  Solving for pcorr, Initial residual = 0.999848, Final residual = 1.79602e-13, No Iterations 1
ExecutionTime = 0.28 s  ClockTime = 0 s

Courant Number mean: 0.278695 max: 0.299276
deltaT = 0.000748189
Time = 0.0213115

diagonal:  Solving for rho1, Initial residual = 0, Final residual = 0, No Iterations 0
diagonal:  Solving for rho2, Initial residual = 0, Final residual = 0, No Iterations 0
PIMPLE: iteration 1
MULES: Solving for volumeFraction1
Phase-1 volume fraction = 0  Min(volumeFraction1) = 0  Max(volumeFraction1) = 0
 max: rho1 1127.89 min: 964.488
 max: rho2 5.15493 min: 0.0630413
DILUPBiCGStab:  Solving for T, Initial residual = 0.0162926, Final residual = 1.17527e-18, No Iterations 1
 C1 145.305 C2 1.23168
DILUPBiCGStab:  Solving for p_rgh, Initial residual = 0.0138315, Final residual = 1.20729e-18, No Iterations 1
max/min kappa: 1/0
GAMGPCG:  Solving for pcorr, Initial residual = 0.999861, Final residual = 7.34031e-15, No Iterations 1
PIMPLE: iteration 2
MULES: Solving for volumeFraction1
Phase-1 volume fraction = 0  Min(volumeFraction1) = 0  Max(volumeFraction1) = 0
 max: rho1 1000 min: 1000
 max: rho2 5.15082 min: 0.0632122
DILUPBiCGStab:  Solving for T, Initial residual = 0.000863173, Final residual = 1.45755e-19, No Iterations 1
 C1 145.31 C2 1.23172
DILUPBiCGStab:  Solving for p_rgh, Initial residual = 0.000873767, Final residual = 3.11974e-20, No Iterations 1
max/min kappa: 1/0
GAMGPCG:  Solving for pcorr, Initial residual = 0.999834, Final residual = 1.73959e-13, No Iterations 1
PIMPLE: iteration 3
MULES: Solving for volumeFraction1
Phase-1 volume fraction = 0  Min(volumeFraction1) = 0  Max(volumeFraction1) = 0
 max: rho1 1000 min: 1000
 max: rho2 5.14605 min: 0.0632179
DILUPBiCGStab:  Solving for T, Initial residual = 0.0019879, Final residual = 2.768e-19, No Iterations 1
 C1 145.254 C2 1.23124
DILUPBiCGStab:  Solving for p_rgh, Initial residual = 0.00102767, Final residual = 8.13592e-20, No Iterations 1
max/min kappa: 1/0
GAMGPCG:  Solving for pcorr, Initial residual = 0.999847, Final residual = 2.94624e-13, No Iterations 1
ExecutionTime = 0.28 s  ClockTime = 0 s

Courant Number mean: 0.277383 max: 0.299276
deltaT = 0.000748189
Time = 0.0220597

diagonal:  Solving for rho1, Initial residual = 0, Final residual = 0, No Iterations 0
diagonal:  Solving for rho2, Initial residual = 0, Final residual = 0, No Iterations 0
PIMPLE: iteration 1
MULES: Solving for volumeFraction1
Phase-1 volume fraction = 0  Min(volumeFraction1) = 0  Max(volumeFraction1) = 0
 max: rho1 1125.61 min: 965.192
 max: rho2 5.26733 min: 0.0613602
DILUPBiCGStab:  Solving for T, Initial residual = 0.0164111, Final residual = 9.59117e-19, No Iterations 1
 C1 146.651 C2 1.24309
DILUPBiCGStab:  Solving for p_rgh, Initial residual = 0.0136298, Final residual = 9.25954e-19, No Iterations 1
max/min kappa: 1/0
GAMGPCG:  Solving for pcorr, Initial residual = 0.999856, Final residual = 9.54711e-14, No Iterations 1
PIMPLE: iteration 2
MULES: Solving for volumeFraction1
Phase-1 volume fraction = 0  Min(volumeFraction1) = 0  Max(volumeFraction1) = 0
 max: rho1 1000 min: 1000
 max: rho2 5.26025 min: 0.0615101
DILUPBiCGStab:  Solving for T, Initial residual = 0.0011025, Final residual = 1.5959e-19, No Iterations 1
 C1 146.635 C2 1.24295
DILUPBiCGStab:  Solving for p_rgh, Initial residual = 0.000750395, Final residual = 2.04402e-20, No Iterations 1
max/min kappa: 1/0
GAMGPCG:  Solving for pcorr, Initial residual = 0.999851, Final residual = 4.30633e-13, No Iterations 1
PIMPLE: iteration 3
MULES: Solving for volumeFraction1
Phase-1 volume fraction = 0  Min(volumeFraction1) = 0  Max(volumeFraction1) = 0
 max: rho1 1000 min: 1000
 max: rho2 5.25783 min: 0.0615152
DILUPBiCGStab:  Solving for T, Initial residual = 0.00157391, Final residual = 4.85203e-20, No Iterations 1
 C1 146.6 C2 1.24265
DILUPBiCGStab:  Solving for p_rgh, Initial residual = 0.000803564, Final residual = 8.35006e-20, No Iterations 1
max/min kappa: 1/0
GAMGPCG:  Solving for pcorr, Initial residual = 0.999852, Final residual = 1.84215e-13, No Iterations 1
ExecutionTime = 0.29 s  ClockTime = 0 s

Courant Number mean: 0.276148 max: 0.299276
deltaT = 0.000748189
Time = 0.0228078

diagonal:  Solving for rho1, Initial residual = 0, Final residual = 0, No Iterations 0
diagonal:  Solving for rho2, Initial residual = 0, Final residual = 0, No Iterations 0
PIMPLE: iteration 1
MULES: Solving for volumeFraction1
Phase-1 volume fraction = 0  Min(volumeFraction1) = 0  Max(volumeFraction1) = 0
 max: rho1 1122.71 min: 965.503
 max: rho2 5.36892 min: 0.0598112
DILUPBiCGStab:  Solving for T, Initial residual = 0.0163804, Final residual = 9.16887e-19, No Iterations 1
 C1 147.923 C2 1.25387
DILUPBiCGStab:  Solving for p_rgh, Initial residual = 0.0132467, Final residual = 1.08728e-18, No Iterations 1
max/min kappa: 1/0
GAMGPCG:  Solving for pcorr, Initial residual = 0.999863, Final residual = 7.60714e-14, No Iterations 1
PIMPLE: iteration 2
MULES: Solving for volumeFraction1
Phase-1 volume fraction = 0  Min(volumeFraction1) = 0  Max(volumeFraction1) = 0
 max: rho1 1000 min: 1000
 max: rho2 5.36021 min: 0.0599434
DILUPBiCGStab:  Solving for T, Initial residual = 0.0013043, Final residual = 2.05663e-19, No Iterations 1
 C1 147.887 C2 1.25356
DILUPBiCGStab:  Solving for p_rgh, Initial residual = 0.000676572, Final residual = 1.181e-19, No Iterations 1
max/min kappa: 1/0
GAMGPCG:  Solving for pcorr, Initial residual = 0.999857, Final residual = 1.62638e-13, No Iterations 1
PIMPLE: iteration 3
MULES: Solving for volumeFraction1
Phase-1 volume fraction = 0  Min(volumeFraction1) = 0  Max(volumeFraction1) = 0
 max: rho1 1000 min: 1000
 max: rho2 5.35925 min: 0.0599481
DILUPBiCGStab:  Solving for T, Initial residual = 0.00127093, Final residual = 6.56268e-20, No Iterations 1
 C1 147.863 C2 1.25337
DILUPBiCGStab:  Solving for p_rgh, Initial residual = 0.000623011, Final residual = 3.8434e-20, No Iterations 1
max/min kappa: 1/0
GAMGPCG:  Solving for pcorr, Initial residual = 0.999847, Final residual = 1.71115e-13, No Iterations 1
ExecutionTime = 0.3 s  ClockTime = 0 s

Courant Number mean: 0.275 max: 0.299276
deltaT = 0.000748189
Time = 0.023556

diagonal:  Solving for rho1, Initial residual = 0, Final residual = 0, No Iterations 0
diagonal:  Solving for rho2, Initial residual = 0, Final residual = 0, No Iterations 0
PIMPLE: iteration 1
MULES: Solving for volumeFraction1
Phase-1 volume fraction = 0  Min(volumeFraction1) = 0  Max(volumeFraction1) = 0
 max: rho1 1119.24 min: 965.935
 max: rho2 5.4604 min: 0.0583798
DILUPBiCGStab:  Solving for T, Initial residual = 0.01618, Final residual = 1.03089e-18, No Iterations 1
 C1 149.119 C2 1.26401
DILUPBiCGStab:  Solving for p_rgh, Initial residual = 0.0127473, Final residual = 9.44485e-19, No Iterations 1
max/min kappa: 1/0
GAMGPCG:  Solving for pcorr, Initial residual = 0.999852, Final residual = 4.99672e-13, No Iterations 1
PIMPLE: iteration 2
MULES: Solving for volumeFraction1
Phase-1 volume fraction = 0  Min(volumeFraction1) = 0  Max(volumeFraction1) = 0
 max: rho1 1000 min: 1000
 max: rho2 5.45128 min: 0.0584969
DILUPBiCGStab:  Solving for T, Initial residual = 0.00144426, Final residual = 2.36744e-20, No Iterations 1
 C1 149.066 C2 1.26356
DILUPBiCGStab:  Solving for p_rgh, Initial residual = 0.000619924, Final residual = 1.18794e-19, No Iterations 1
max/min kappa: 1/0
GAMGPCG:  Solving for pcorr, Initial residual = 0.999844, Final residual = 4.6985e-13, No Iterations 1
PIMPLE: iteration 3
MULES: Solving for volumeFraction1
Phase-1 volume fraction = 0  Min(volumeFraction1) = 0  Max(volumeFraction1) = 0
 max: rho1 1000 min: 1000
 max: rho2 5.45132 min: 0.0585011
DILUPBiCGStab:  Solving for T, Initial residual = 0.00103853, Final residual = 1.4167e-19, No Iterations 1
 C1 149.05 C2 1.26342
DILUPBiCGStab:  Solving for p_rgh, Initial residual = 0.000479363, Final residual = 1.27195e-20, No Iterations 1
max/min kappa: 1/0
GAMGPCG:  Solving for pcorr, Initial residual = 0.999855, Final residual = 2.19712e-13, No Iterations 1
ExecutionTime = 0.31 s  ClockTime = 0 s

Courant Number mean: 0.273947 max: 0.299276
deltaT = 0.000748189
Time = 0.0243042

diagonal:  Solving for rho1, Initial residual = 0, Final residual = 0, No Iterations 0
diagonal:  Solving for rho2, Initial residual = 0, Final residual = 0, No Iterations 0
PIMPLE: iteration 1
MULES: Solving for volumeFraction1
Phase-1 volume fraction = 0  Min(volumeFraction1) = 0  Max(volumeFraction1) = 0
 max: rho1 1115.26 min: 966.469
 max: rho2 5.54347 min: 0.0570533
DILUPBiCGStab:  Solving for T, Initial residual = 0.0157972, Final residual = 2.86201e-18, No Iterations 1
 C1 150.238 C2 1.27349
DILUPBiCGStab:  Solving for p_rgh, Initial residual = 0.0121796, Final residual = 7.52079e-19, No Iterations 1
max/min kappa: 1/0
GAMGPCG:  Solving for pcorr, Initial residual = 0.999868, Final residual = 3.30417e-13, No Iterations 1
PIMPLE: iteration 2
MULES: Solving for volumeFraction1
Phase-1 volume fraction = 0  Min(volumeFraction1) = 0  Max(volumeFraction1) = 0
 max: rho1 1000 min: 1000
 max: rho2 5.53471 min: 0.0571573
DILUPBiCGStab:  Solving for T, Initial residual = 0.00150745, Final residual = 2.56102e-20, No Iterations 1
 C1 150.173 C2 1.27295
DILUPBiCGStab:  Solving for p_rgh, Initial residual = 0.000560607, Final residual = 2.4484e-20, No Iterations 1
max/min kappa: 1/0
GAMGPCG:  Solving for pcorr, Initial residual = 0.999843, Final residual = 2.87505e-13, No Iterations 1
PIMPLE: iteration 3
MULES: Solving for volumeFraction1
Phase-1 volume fraction = 0  Min(volumeFraction1) = 0  Max(volumeFraction1) = 0
 max: rho1 1000 min: 1000
 max: rho2 5.53553 min: 0.0571612
DILUPBiCGStab:  Solving for T, Initial residual = 0.000845861, Final residual = 1.02612e-19, No Iterations 1
 C1 150.161 C2 1.27284
DILUPBiCGStab:  Solving for p_rgh, Initial residual = 0.000366356, Final residual = 4.52162e-20, No Iterations 1
max/min kappa: 1/0
GAMGPCG:  Solving for pcorr, Initial residual = 0.999859, Final residual = 5.84158e-13, No Iterations 1
ExecutionTime = 0.31 s  ClockTime = 0 s

Courant Number mean: 0.272983 max: 0.299276
deltaT = 0.000748189
Time = 0.0250524

diagonal:  Solving for rho1, Initial residual = 0, Final residual = 0, No Iterations 0
diagonal:  Solving for rho2, Initial residual = 0, Final residual = 0, No Iterations 0
PIMPLE: iteration 1
MULES: Solving for volumeFraction1
Phase-1 volume fraction = 0  Min(volumeFraction1) = 0  Max(volumeFraction1) = 0
 max: rho1 1110.85 min: 967.084
 max: rho2 5.62004 min: 0.0558206
DILUPBiCGStab:  Solving for T, Initial residual = 0.0152489, Final residual = 1.18816e-18, No Iterations 1
 C1 151.281 C2 1.28234
DILUPBiCGStab:  Solving for p_rgh, Initial residual = 0.01158, Final residual = 7.68334e-19, No Iterations 1
max/min kappa: 1/0
GAMGPCG:  Solving for pcorr, Initial residual = 0.999834, Final residual = 3.19448e-13, No Iterations 1
PIMPLE: iteration 2
MULES: Solving for volumeFraction1
Phase-1 volume fraction = 0  Min(volumeFraction1) = 0  Max(volumeFraction1) = 0
 max: rho1 1000 min: 1000
 max: rho2 5.61201 min: 0.0559134
DILUPBiCGStab:  Solving for T, Initial residual = 0.0014996, Final residual = 1.0305e-19, No Iterations 1
 C1 151.21 C2 1.28173
[...]
ExecutionTime = 1.53 s  ClockTime = 1 s

Courant Number mean: 0.11852 max: 0.287737
deltaT = 0.000748189
Time = 0.143266

diagonal:  Solving for rho1, Initial residual = 0, Final residual = 0, No Iterations 0
diagonal:  Solving for rho2, Initial residual = 0, Final residual = 0, No Iterations 0
PIMPLE: iteration 1
MULES: Solving for volumeFraction1
Phase-1 volume fraction = 0  Min(volumeFraction1) = 0  Max(volumeFraction1) = 0
 max: rho1 1069.86 min: 995.256
 max: rho2 4.57038 min: 0.0186847
DILUPBiCGStab:  Solving for T, Initial residual = 0.00191517, Final residual = 9.95913e-20, No Iterations 1
 C1 163.531 C2 1.38617
DILUPBiCGStab:  Solving for p_rgh, Initial residual = 0.0014149, Final residual = 1.78104e-19, No Iterations 1
max/min kappa: 1/0
GAMGPCG:  Solving for pcorr, Initial residual = 0.999867, Final residual = 1.10114e-12, No Iterations 1
PIMPLE: iteration 2
MULES: Solving for volumeFraction1
Phase-1 volume fraction = 0  Min(volumeFraction1) = 0  Max(volumeFraction1) = 0
 max: rho1 1000 min: 1000
 max: rho2 4.56993 min: 0.0186853
DILUPBiCGStab:  Solving for T, Initial residual = 0.000163395, Final residual = 4.41927e-20, No Iterations 1
 C1 163.528 C2 1.38615
DILUPBiCGStab:  Solving for p_rgh, Initial residual = 6.01241e-05, Final residual = 1.10686e-21, No Iterations 1
max/min kappa: 1/0
GAMGPCG:  Solving for pcorr, Initial residual = 0.999869, Final residual = 4.21237e-12, No Iterations 1
PIMPLE: iteration 3
MULES: Solving for volumeFraction1
Phase-1 volume fraction = 0  Min(volumeFraction1) = 0  Max(volumeFraction1) = 0
 max: rho1 1000 min: 1000
 max: rho2 4.56994 min: 0.0186853
DILUPBiCGStab:  Solving for T, Initial residual = 0.000121725, Final residual = 6.15836e-21, No Iterations 1
 C1 163.527 C2 1.38614
DILUPBiCGStab:  Solving for p_rgh, Initial residual = 5.11882e-05, Final residual = 6.6129e-21, No Iterations 1
max/min kappa: 1/0
GAMGPCG:  Solving for pcorr, Initial residual = 0.999859, Final residual = 3.04851e-12, No Iterations 1
ExecutionTime = 1.54 s  ClockTime = 1 s

Courant Number mean: 0.11755 max: 0.286376
deltaT = 0.000748189
Time = 0.144014

diagonal:  Solving for rho1, Initial residual = 0, Final residual = 0, No Iterations 0
diagonal:  Solving for rho2, Initial residual = 0, Final residual = 0, No Iterations 0
PIMPLE: iteration 1
MULES: Solving for volumeFraction1
Phase-1 volume fraction = 0  Min(volumeFraction1) = 0  Max(volumeFraction1) = 0
 max: rho1 1074.92 min: 995.28
 max: rho2 4.57261 min: 0.0186489
DILUPBiCGStab:  Solving for T, Initial residual = 0.00191255, Final residual = 1.56123e-19, No Iterations 1
 C1 163.492 C2 1.38584
DILUPBiCGStab:  Solving for p_rgh, Initial residual = 0.00138486, Final residual = 2.86706e-19, No Iterations 1
max/min kappa: 1/0
GAMGPCG:  Solving for pcorr, Initial residual = 0.999861, Final residual = 9.81483e-13, No Iterations 1
PIMPLE: iteration 2
MULES: Solving for volumeFraction1
Phase-1 volume fraction = 0  Min(volumeFraction1) = 0  Max(volumeFraction1) = 0
 max: rho1 1000 min: 1000
 max: rho2 4.57214 min: 0.0186495
DILUPBiCGStab:  Solving for T, Initial residual = 0.000140944, Final residual = 1.17762e-20, No Iterations 1
 C1 163.49 C2 1.38582
DILUPBiCGStab:  Solving for p_rgh, Initial residual = 4.59051e-05, Final residual = 2.96983e-21, No Iterations 1
max/min kappa: 1/0
GAMGPCG:  Solving for pcorr, Initial residual = 0.999857, Final residual = 1.47943e-12, No Iterations 1
PIMPLE: iteration 3
MULES: Solving for volumeFraction1
Phase-1 volume fraction = 0  Min(volumeFraction1) = 0  Max(volumeFraction1) = 0
 max: rho1 1000 min: 1000
 max: rho2 4.57215 min: 0.0186495
DILUPBiCGStab:  Solving for T, Initial residual = 9.70528e-05, Final residual = 1.25761e-20, No Iterations 1
 C1 163.489 C2 1.38582
DILUPBiCGStab:  Solving for p_rgh, Initial residual = 5.47986e-05, Final residual = 2.50428e-21, No Iterations 1
max/min kappa: 1/0
GAMGPCG:  Solving for pcorr, Initial residual = 0.999861, Final residual = 2.15569e-13, No Iterations 1
ExecutionTime = 1.55 s  ClockTime = 1 s

Courant Number mean: 0.116631 max: 0.284905
deltaT = 0.000748189
Time = 0.144763

diagonal:  Solving for rho1, Initial residual = 0, Final residual = 0, No Iterations 0
diagonal:  Solving for rho2, Initial residual = 0, Final residual = 0, No Iterations 0
PIMPLE: iteration 1
MULES: Solving for volumeFraction1
Phase-1 volume fraction = 0  Min(volumeFraction1) = 0  Max(volumeFraction1) = 0
 max: rho1 1079.51 min: 995.305
 max: rho2 4.57442 min: 0.0186137
DILUPBiCGStab:  Solving for T, Initial residual = 0.00184359, Final residual = 1.69624e-19, No Iterations 1
 C1 163.482 C2 1.38576
DILUPBiCGStab:  Solving for p_rgh, Initial residual = 0.00132993, Final residual = 1.72409e-19, No Iterations 1
max/min kappa: 1/0
GAMGPCG:  Solving for pcorr, Initial residual = 0.999849, Final residual = 2.36672e-14, No Iterations 1
PIMPLE: iteration 2
MULES: Solving for volumeFraction1
Phase-1 volume fraction = 0  Min(volumeFraction1) = 0  Max(volumeFraction1) = 0
 max: rho1 1000 min: 1000
 max: rho2 4.57395 min: 0.0186143
DILUPBiCGStab:  Solving for T, Initial residual = 0.000112418, Final residual = 5.62559e-21, No Iterations 1
 C1 163.479 C2 1.38573
DILUPBiCGStab:  Solving for p_rgh, Initial residual = 3.16196e-05, Final residual = 4.1242e-21, No Iterations 1
max/min kappa: 1/0
GAMGPCG:  Solving for pcorr, Initial residual = 0.999854, Final residual = 4.92926e-13, No Iterations 1
PIMPLE: iteration 3
MULES: Solving for volumeFraction1
Phase-1 volume fraction = 0  Min(volumeFraction1) = 0  Max(volumeFraction1) = 0
 max: rho1 1000 min: 1000
 max: rho2 4.57397 min: 0.0186143
DILUPBiCGStab:  Solving for T, Initial residual = 6.92583e-05, Final residual = 6.06053e-21, No Iterations 1
 C1 163.478 C2 1.38572
DILUPBiCGStab:  Solving for p_rgh, Initial residual = 4.1963e-05, Final residual = 4.12038e-21, No Iterations 1
max/min kappa: 1/0
GAMGPCG:  Solving for pcorr, Initial residual = 0.999867, Final residual = 1.34175e-12, No Iterations 1
ExecutionTime = 1.56 s  ClockTime = 1 s

Courant Number mean: 0.115778 max: 0.283329
deltaT = 0.000748189
Time = 0.145511

diagonal:  Solving for rho1, Initial residual = 0, Final residual = 0, No Iterations 0
diagonal:  Solving for rho2, Initial residual = 0, Final residual = 0, No Iterations 0
PIMPLE: iteration 1
MULES: Solving for volumeFraction1
Phase-1 volume fraction = 0  Min(volumeFraction1) = 0  Max(volumeFraction1) = 0
 max: rho1 1083.49 min: 995.329
 max: rho2 4.57584 min: 0.018579
DILUPBiCGStab:  Solving for T, Initial residual = 0.00176545, Final residual = 6.78672e-20, No Iterations 1
 C1 163.506 C2 1.38596
DILUPBiCGStab:  Solving for p_rgh, Initial residual = 0.00127665, Final residual = 1.77053e-19, No Iterations 1
max/min kappa: 1/0
GAMGPCG:  Solving for pcorr, Initial residual = 0.999824, Final residual = 3.35542e-12, No Iterations 1
PIMPLE: iteration 2
MULES: Solving for volumeFraction1
Phase-1 volume fraction = 0  Min(volumeFraction1) = 0  Max(volumeFraction1) = 0
 max: rho1 1000 min: 1000
 max: rho2 4.57539 min: 0.0185795
DILUPBiCGStab:  Solving for T, Initial residual = 9.31534e-05, Final residual = 7.58372e-21, No Iterations 1
 C1 163.502 C2 1.38592
DILUPBiCGStab:  Solving for p_rgh, Initial residual = 2.25722e-05, Final residual = 3.26143e-21, No Iterations 1
max/min kappa: 1/0
GAMGPCG:  Solving for pcorr, Initial residual = 0.999852, Final residual = 6.47453e-15, No Iterations 1
PIMPLE: iteration 3
MULES: Solving for volumeFraction1
Phase-1 volume fraction = 0  Min(volumeFraction1) = 0  Max(volumeFraction1) = 0
 max: rho1 1000 min: 1000
 max: rho2 4.5754 min: 0.0185795
DILUPBiCGStab:  Solving for T, Initial residual = 5.03401e-05, Final residual = 8.83178e-21, No Iterations 1
 C1 163.5 C2 1.38591
DILUPBiCGStab:  Solving for p_rgh, Initial residual = 3.39688e-05, Final residual = 5.71013e-21, No Iterations 1
max/min kappa: 1/0
GAMGPCG:  Solving for pcorr, Initial residual = 0.999839, Final residual = 7.93087e-13, No Iterations 1
ExecutionTime = 1.57 s  ClockTime = 1 s

Courant Number mean: 0.114959 max: 0.281658
deltaT = 0.000748189
Time = 0.146259

diagonal:  Solving for rho1, Initial residual = 0, Final residual = 0, No Iterations 0
diagonal:  Solving for rho2, Initial residual = 0, Final residual = 0, No Iterations 0
PIMPLE: iteration 1
MULES: Solving for volumeFraction1
Phase-1 volume fraction = 0  Min(volumeFraction1) = 0  Max(volumeFraction1) = 0
 max: rho1 1086.89 min: 995.353
 max: rho2 4.57689 min: 0.0185448
DILUPBiCGStab:  Solving for T, Initial residual = 0.00168523, Final residual = 1.5237e-19, No Iterations 1
 C1 163.524 C2 1.38611
DILUPBiCGStab:  Solving for p_rgh, Initial residual = 0.00122786, Final residual = 3.00787e-19, No Iterations 1
max/min kappa: 1/0
GAMGPCG:  Solving for pcorr, Initial residual = 0.999845, Final residual = 2.54921e-12, No Iterations 1
PIMPLE: iteration 2
MULES: Solving for volumeFraction1
Phase-1 volume fraction = 0  Min(volumeFraction1) = 0  Max(volumeFraction1) = 0
 max: rho1 1000 min: 1000
 max: rho2 4.57645 min: 0.0185453
DILUPBiCGStab:  Solving for T, Initial residual = 7.588e-05, Final residual = 1.28676e-20, No Iterations 1
 C1 163.519 C2 1.38607
DILUPBiCGStab:  Solving for p_rgh, Initial residual = 1.61996e-05, Final residual = 1.64555e-21, No Iterations 1
max/min kappa: 1/0
GAMGPCG:  Solving for pcorr, Initial residual = 0.999855, Final residual = 5.3955e-13, No Iterations 1
PIMPLE: iteration 3
MULES: Solving for volumeFraction1
Phase-1 volume fraction = 0  Min(volumeFraction1) = 0  Max(volumeFraction1) = 0
 max: rho1 1000 min: 1000
 max: rho2 4.57645 min: 0.0185453
DILUPBiCGStab:  Solving for T, Initial residual = 3.68534e-05, Final residual = 9.6427e-21, No Iterations 1
 C1 163.518 C2 1.38606
DILUPBiCGStab:  Solving for p_rgh, Initial residual = 2.67203e-05, Final residual = 1.40861e-21, No Iterations 1
max/min kappa: 1/0
GAMGPCG:  Solving for pcorr, Initial residual = 0.99987, Final residual = 1.03803e-12, No Iterations 1
ExecutionTime = 1.57 s  ClockTime = 1 s

Courant Number mean: 0.114169 max: 0.279978
deltaT = 0.000748189
Time = 0.147007

diagonal:  Solving for rho1, Initial residual = 0, Final residual = 0, No Iterations 0
diagonal:  Solving for rho2, Initial residual = 0, Final residual = 0, No Iterations 0
PIMPLE: iteration 1
MULES: Solving for volumeFraction1
Phase-1 volume fraction = 0  Min(volumeFraction1) = 0  Max(volumeFraction1) = 0
 max: rho1 1089.73 min: 995.377
 max: rho2 4.57757 min: 0.0185111
DILUPBiCGStab:  Solving for T, Initial residual = 0.00161722, Final residual = 6.21538e-20, No Iterations 1
 C1 163.536 C2 1.38621
DILUPBiCGStab:  Solving for p_rgh, Initial residual = 0.0011877, Final residual = 1.11875e-19, No Iterations 1
max/min kappa: 1/0
GAMGPCG:  Solving for pcorr, Initial residual = 0.99985, Final residual = 1.17665e-12, No Iterations 1
PIMPLE: iteration 2
MULES: Solving for volumeFraction1
Phase-1 volume fraction = 0  Min(volumeFraction1) = 0  Max(volumeFraction1) = 0
 max: rho1 1000 min: 1000
 max: rho2 4.57714 min: 0.0185117
DILUPBiCGStab:  Solving for T, Initial residual = 6.35902e-05, Final residual = 3.99158e-21, No Iterations 1
 C1 163.531 C2 1.38618
DILUPBiCGStab:  Solving for p_rgh, Initial residual = 1.41098e-05, Final residual = 1.37982e-21, No Iterations 1
max/min kappa: 1/0
GAMGPCG:  Solving for pcorr, Initial residual = 0.999848, Final residual = 2.24681e-12, No Iterations 1
PIMPLE: iteration 3
MULES: Solving for volumeFraction1
Phase-1 volume fraction = 0  Min(volumeFraction1) = 0  Max(volumeFraction1) = 0
 max: rho1 1000 min: 1000
 max: rho2 4.57714 min: 0.0185117
DILUPBiCGStab:  Solving for T, Initial residual = 3.06581e-05, Final residual = 5.56047e-21, No Iterations 1
 C1 163.53 C2 1.38617
DILUPBiCGStab:  Solving for p_rgh, Initial residual = 2.16481e-05, Final residual = 5.03394e-21, No Iterations 1
max/min kappa: 1/0
GAMGPCG:  Solving for pcorr, Initial residual = 0.999848, Final residual = 1.22487e-12, No Iterations 1
ExecutionTime = 1.58 s  ClockTime = 1 s

Courant Number mean: 0.113396 max: 0.278996
deltaT = 0.000748189
Time = 0.147755

diagonal:  Solving for rho1, Initial residual = 0, Final residual = 0, No Iterations 0
diagonal:  Solving for rho2, Initial residual = 0, Final residual = 0, No Iterations 0
PIMPLE: iteration 1
MULES: Solving for volumeFraction1
Phase-1 volume fraction = 0  Min(volumeFraction1) = 0  Max(volumeFraction1) = 0
 max: rho1 1092.04 min: 995.401
 max: rho2 4.57782 min: 0.0184779
DILUPBiCGStab:  Solving for T, Initial residual = 0.00155383, Final residual = 1.61334e-19, No Iterations 1
 C1 163.542 C2 1.38627
DILUPBiCGStab:  Solving for p_rgh, Initial residual = 0.00115676, Final residual = 2.98288e-19, No Iterations 1
max/min kappa: 1/0
GAMGPCG:  Solving for pcorr, Initial residual = 0.999854, Final residual = 2.89576e-12, No Iterations 1
PIMPLE: iteration 2
MULES: Solving for volumeFraction1
Phase-1 volume fraction = 0  Min(volumeFraction1) = 0  Max(volumeFraction1) = 0
 max: rho1 1000 min: 1000
 max: rho2 4.57741 min: 0.0184785
DILUPBiCGStab:  Solving for T, Initial residual = 5.48302e-05, Final residual = 9.20239e-21, No Iterations 1
 C1 163.538 C2 1.38623
DILUPBiCGStab:  Solving for p_rgh, Initial residual = 1.46363e-05, Final residual = 2.26089e-21, No Iterations 1
max/min kappa: 1/0
GAMGPCG:  Solving for pcorr, Initial residual = 0.999852, Final residual = 2.37471e-12, No Iterations 1
PIMPLE: iteration 3
MULES: Solving for volumeFraction1
Phase-1 volume fraction = 0  Min(volumeFraction1) = 0  Max(volumeFraction1) = 0
 max: rho1 1000 min: 1000
 max: rho2 4.57741 min: 0.0184785
DILUPBiCGStab:  Solving for T, Initial residual = 2.85574e-05, Final residual = 1.75991e-21, No Iterations 1
 C1 163.537 C2 1.38622
DILUPBiCGStab:  Solving for p_rgh, Initial residual = 1.82325e-05, Final residual = 2.81203e-21, No Iterations 1
max/min kappa: 1/0
GAMGPCG:  Solving for pcorr, Initial residual = 0.99985, Final residual = 8.86843e-13, No Iterations 1
ExecutionTime = 1.59 s  ClockTime = 1 s

Courant Number mean: 0.112634 max: 0.278
deltaT = 0.000748189
Time = 0.148504

diagonal:  Solving for rho1, Initial residual = 0, Final residual = 0, No Iterations 0
diagonal:  Solving for rho2, Initial residual = 0, Final residual = 0, No Iterations 0
PIMPLE: iteration 1
MULES: Solving for volumeFraction1
Phase-1 volume fraction = 0  Min(volumeFraction1) = 0  Max(volumeFraction1) = 0
 max: rho1 1093.88 min: 995.425
 max: rho2 4.5777 min: 0.0184453
DILUPBiCGStab:  Solving for T, Initial residual = 0.00149207, Final residual = 1.3751e-19, No Iterations 1
 C1 163.543 C2 1.38627
DILUPBiCGStab:  Solving for p_rgh, Initial residual = 0.00113064, Final residual = 6.22826e-20, No Iterations 1
max/min kappa: 1/0
GAMGPCG:  Solving for pcorr, Initial residual = 0.999855, Final residual = 1.8753e-12, No Iterations 1
PIMPLE: iteration 2
MULES: Solving for volumeFraction1
Phase-1 volume fraction = 0  Min(volumeFraction1) = 0  Max(volumeFraction1) = 0
 max: rho1 1000 min: 1000
 max: rho2 4.5773 min: 0.0184458
DILUPBiCGStab:  Solving for T, Initial residual = 5.23866e-05, Final residual = 3.01176e-21, No Iterations 1
 C1 163.539 C2 1.38624
DILUPBiCGStab:  Solving for p_rgh, Initial residual = 1.55447e-05, Final residual = 2.68212e-21, No Iterations 1
max/min kappa: 1/0
GAMGPCG:  Solving for pcorr, Initial residual = 0.999847, Final residual = 1.78446e-12, No Iterations 1
PIMPLE: iteration 3
MULES: Solving for volumeFraction1
Phase-1 volume fraction = 0  Min(volumeFraction1) = 0  Max(volumeFraction1) = 0
 max: rho1 1000 min: 1000
 max: rho2 4.5773 min: 0.0184458
DILUPBiCGStab:  Solving for T, Initial residual = 2.74139e-05, Final residual = 1.62102e-21, No Iterations 1
 C1 163.537 C2 1.38623
DILUPBiCGStab:  Solving for p_rgh, Initial residual = 1.55768e-05, Final residual = 1.56183e-21, No Iterations 1
max/min kappa: 1/0
GAMGPCG:  Solving for pcorr, Initial residual = 0.999854, Final residual = 6.06822e-13, No Iterations 1
ExecutionTime = 1.6 s  ClockTime = 1 s

Courant Number mean: 0.111884 max: 0.276989
deltaT = 0.000748189
Time = 0.149252

diagonal:  Solving for rho1, Initial residual = 0, Final residual = 0, No Iterations 0
diagonal:  Solving for rho2, Initial residual = 0, Final residual = 0, No Iterations 0
PIMPLE: iteration 1
MULES: Solving for volumeFraction1
Phase-1 volume fraction = 0  Min(volumeFraction1) = 0  Max(volumeFraction1) = 0
 max: rho1 1095.27 min: 995.449
 max: rho2 4.57733 min: 0.0184131
DILUPBiCGStab:  Solving for T, Initial residual = 0.00144454, Final residual = 2.96355e-19, No Iterations 1
 C1 163.538 C2 1.38623
DILUPBiCGStab:  Solving for p_rgh, Initial residual = 0.00111221, Final residual = 9.01633e-20, No Iterations 1
max/min kappa: 1/0
GAMGPCG:  Solving for pcorr, Initial residual = 0.999857, Final residual = 2.00648e-12, No Iterations 1
PIMPLE: iteration 2
MULES: Solving for volumeFraction1
Phase-1 volume fraction = 0  Min(volumeFraction1) = 0  Max(volumeFraction1) = 0
 max: rho1 1000 min: 1000
 max: rho2 4.57684 min: 0.0184137
DILUPBiCGStab:  Solving for T, Initial residual = 4.98164e-05, Final residual = 4.97464e-21, No Iterations 1
 C1 163.533 C2 1.38619
DILUPBiCGStab:  Solving for p_rgh, Initial residual = 1.53289e-05, Final residual = 1.22075e-21, No Iterations 1
max/min kappa: 1/0
GAMGPCG:  Solving for pcorr, Initial residual = 0.999865, Final residual = 1.54821e-12, No Iterations 1
PIMPLE: iteration 3
MULES: Solving for volumeFraction1
Phase-1 volume fraction = 0  Min(volumeFraction1) = 0  Max(volumeFraction1) = 0
 max: rho1 1000 min: 1000
 max: rho2 4.57684 min: 0.0184137
DILUPBiCGStab:  Solving for T, Initial residual = 2.64688e-05, Final residual = 9.77818e-22, No Iterations 1
 C1 163.532 C2 1.38619
DILUPBiCGStab:  Solving for p_rgh, Initial residual = 1.36282e-05, Final residual = 9.96025e-22, No Iterations 1
max/min kappa: 1/0
GAMGPCG:  Solving for pcorr, Initial residual = 0.999872, Final residual = 1.10741e-12, No Iterations 1
ExecutionTime = 1.6 s  ClockTime = 1 s

Courant Number mean: 0.111139 max: 0.275966
deltaT = 0.000748189
Time = 0.15

diagonal:  Solving for rho1, Initial residual = 0, Final residual = 0, No Iterations 0
diagonal:  Solving for rho2, Initial residual = 0, Final residual = 0, No Iterations 0
PIMPLE: iteration 1
MULES: Solving for volumeFraction1
Phase-1 volume fraction = 0  Min(volumeFraction1) = 0  Max(volumeFraction1) = 0
 max: rho1 1096.25 min: 995.472
 max: rho2 4.57686 min: 0.0183815
DILUPBiCGStab:  Solving for T, Initial residual = 0.00141399, Final residual = 1.32471e-19, No Iterations 1
 C1 163.528 C2 1.38614
DILUPBiCGStab:  Solving for p_rgh, Initial residual = 0.0010977, Final residual = 8.39886e-20, No Iterations 1
max/min kappa: 1/0
GAMGPCG:  Solving for pcorr, Initial residual = 0.999854, Final residual = 2.28726e-12, No Iterations 1
PIMPLE: iteration 2
MULES: Solving for volumeFraction1
Phase-1 volume fraction = 0  Min(volumeFraction1) = 0  Max(volumeFraction1) = 0
 max: rho1 1000 min: 1000
 max: rho2 4.57604 min: 0.018382
DILUPBiCGStab:  Solving for T, Initial residual = 4.83593e-05, Final residual = 3.25417e-21, No Iterations 1
 C1 163.523 C2 1.38611
DILUPBiCGStab:  Solving for p_rgh, Initial residual = 1.46219e-05, Final residual = 1.18496e-21, No Iterations 1
max/min kappa: 1/0
GAMGPCG:  Solving for pcorr, Initial residual = 0.999877, Final residual = 7.92208e-13, No Iterations 1
PIMPLE: iteration 3
MULES: Solving for volumeFraction1
Phase-1 volume fraction = 0  Min(volumeFraction1) = 0  Max(volumeFraction1) = 0
 max: rho1 1000 min: 1000
 max: rho2 4.57604 min: 0.018382
DILUPBiCGStab:  Solving for T, Initial residual = 2.59917e-05, Final residual = 2.25383e-21, No Iterations 1
 C1 163.523 C2 1.3861
DILUPBiCGStab:  Solving for p_rgh, Initial residual = 1.21395e-05, Final residual = 9.80368e-22, No Iterations 1
max/min kappa: 1/0
GAMGPCG:  Solving for pcorr, Initial residual = 0.999869, Final residual = 9.82083e-13, No Iterations 1
ExecutionTime = 1.61 s  ClockTime = 1 s

End

