/*---------------------------------------------------------------------------*\
| =========                 |                                                 |
| \\      /  F ield         | OpenFOAM: The Open Source CFD Toolbox           |
|  \\    /   O peration     | Version:  2412                                  |
|   \\  /    A nd           | Website:  www.openfoam.com                      |
|    \\/     M anipulation  |                                                 |
\*---------------------------------------------------------------------------*/
Build  : _8dbc61e11c-20241220 OPENFOAM=2412 version=v2412
Arch   : "LSB;label=32;scalar=64"
Exec   : twoPhaseMixingCentralFoam
Date   : Oct 01 2025
Time   : 22:50:45
Host   : m-lenovo
PID    : 202659
I/O    : uncollated
Case   : /home/matvey-l/data/mkraposhin-github/VnV-github/TwoRarefactionWaves/twoPhaseMixingCentralFoam/100CPL
nProcs : 1
trapFpe: Floating point exception trapping enabled (FOAM_SIGFPE).
fileModificationChecking : Monitoring run-time modified files using timeStampMaster (fileModificationSkew 5, maxFileModificationPolls 20)
allowSystemOperations : Allowing user-supplied system call operations

// * * * * * * * * * * * * * * * * * * * * * * * * * * * * * * * * * * * * * //
Create time

Create mesh for time = 0


PIMPLE: no residual control data found. Calculations will employ 3 corrector loops

Reading field U

Constructing compressibleTwoPhaseMixtureThermo

max/min T: 1/1
Reading thermophysical properties

max/min T: 1/1
Creating field gradp

Creating field kinetic energy K

Declare and initialise the cumulative continuity error

No MRF models present

No finite volume options present
Selecting finite volume kappaFunction type standardMachToAcCourantRatio
Creating turbulence model

Selecting turbulence model type laminar
Selecting laminar stress model Stokes
Marking cells with bad quality to limit pressure gradient
Courant Number max: 0.02

Starting time loop

Mean and max Characteristic Courant Numbers = 0.0274833 0.0274833
Courant Number max: 0.02
deltaT = 0.00012
Time = 0.00012

diagonal:  Solving for rho, Initial residual = 0, Final residual = 0, No Iterations 0
rho max/min : 1.024 / 0.976
PIMPLE: iteration 1
Creating matrix for fvOptions
DILUPBiCGStab:  Solving for Y.Liq, Initial residual = 0, Final residual = 0, No Iterations 0
Mass fraction min/max = 0/0
DILUPBiCGStab:  Solving for h, Initial residual = 0.0103567, Final residual = 2.26407e-19, No Iterations 1
max/min T: 1/1
DILUPBiCGStab:  Solving for p, Initial residual = 1, Final residual = 1.35499e-16, No Iterations 1
max(mag(U)): 2
max/min p: 0.409715/0.390399
diagonal:  Solving for rho, Initial residual = 0, Final residual = 0, No Iterations 0
rho max/min : 1.02429 / 0.975998
time step continuity errors : sum local = 1.25455e-16, global = 6.55032e-17, cumulative = 0
max/min FaceAcCourant: 0.0245924/0.00448999
max/min Maf: 2.73859/0
max/min kappa: 1/0
PIMPLE: iteration 2
Creating matrix for fvOptions
DILUPBiCGStab:  Solving for Y.Liq, Initial residual = 0, Final residual = 0, No Iterations 0
Mass fraction min/max = 0/0
DILUPBiCGStab:  Solving for h, Initial residual = 1, Final residual = 8.5552e-17, No Iterations 1
max/min T: 1.00693/0.993149
DILUPBiCGStab:  Solving for p, Initial residual = 0.121831, Final residual = 1.11856e-17, No Iterations 1
max(mag(U)): 2
max/min p: 0.412439/0.387838
diagonal:  Solving for rho, Initial residual = 0, Final residual = 0, No Iterations 0
rho max/min : 1.024 / 0.976283
time step continuity errors : sum local = 1.16573e-16, global = 5.44009e-17, cumulative = 0
max/min FaceAcCourant: 0.0242934/0.00447494
max/min Maf: 2.7146/0
max/min kappa: 1/0
PIMPLE: iteration 3
Creating matrix for fvOptions
DILUPBiCGStab:  Solving for Y.Liq, Initial residual = 0, Final residual = 0, No Iterations 0
Mass fraction min/max = 0/0
DILUPBiCGStab:  Solving for h, Initial residual = 0.122041, Final residual = 4.79717e-18, No Iterations 1
max/min T: 1.00888/0.991316
DILUPBiCGStab:  Solving for p, Initial residual = 0.0300995, Final residual = 9.78142e-20, No Iterations 1
max(mag(U)): 2
max/min p: 0.413237/0.387125
diagonal:  Solving for rho, Initial residual = 0, Final residual = 0, No Iterations 0
rho max/min : 1.024 / 0.97629
time step continuity errors : sum local = 1.46549e-16, global = 7.32747e-17, cumulative = 0
max/min FaceAcCourant: 0.0242863/0.00447089
max/min Maf: 2.71631/0
max/min kappa: 1/0
ExecutionTime = 0.01 s  ClockTime = 0 s

Mean and max Characteristic Courant Numbers = 0.0238085 0.0242863
Courant Number max: 0.024
deltaT = 0.000143977
Time = 0.000263977

diagonal:  Solving for rho, Initial residual = 0, Final residual = 0, No Iterations 0
rho max/min : 1.05279 / 0.947842
PIMPLE: iteration 1
Creating matrix for fvOptions
DILUPBiCGStab:  Solving for Y.Liq, Initial residual = 0, Final residual = 0, No Iterations 0
Mass fraction min/max = 0/0
DILUPBiCGStab:  Solving for h, Initial residual = 0.384537, Final residual = 8.37662e-17, No Iterations 1
max/min T: 1.01967/0.980016
DILUPBiCGStab:  Solving for p, Initial residual = 0.372797, Final residual = 5.52526e-17, No Iterations 1
max(mag(U)): 2
max/min p: 0.429398/0.37172
diagonal:  Solving for rho, Initial residual = 0, Final residual = 0, No Iterations 0
rho max/min : 1.05279 / 0.948249
time step continuity errors : sum local = 1.85407e-16, global = -4.77396e-17, cumulative = 0
max/min FaceAcCourant: 0.0295711/0.00533304
max/min Maf: 2.77245/0
max/min kappa: 1/0
PIMPLE: iteration 2
Creating matrix for fvOptions
DILUPBiCGStab:  Solving for Y.Liq, Initial residual = 0, Final residual = 0, No Iterations 0
Mass fraction min/max = 0/0
DILUPBiCGStab:  Solving for h, Initial residual = 0.00851531, Final residual = 1.23296e-18, No Iterations 1
max/min T: 1.02018/0.980035
DILUPBiCGStab:  Solving for p, Initial residual = 0.00222793, Final residual = 3.19439e-19, No Iterations 1
max(mag(U)): 2
max/min p: 0.429612/0.371731
diagonal:  Solving for rho, Initial residual = 0, Final residual = 0, No Iterations 0
rho max/min : 1.05279 / 0.94826
time step continuity errors : sum local = 1.42109e-16, global = -3.33067e-17, cumulative = 0
max/min FaceAcCourant: 0.0295586/0.00533456
max/min Maf: 2.77125/0
max/min kappa: 1/0
PIMPLE: iteration 3
Creating matrix for fvOptions
DILUPBiCGStab:  Solving for Y.Liq, Initial residual = 0, Final residual = 0, No Iterations 0
Mass fraction min/max = 0/0
DILUPBiCGStab:  Solving for h, Initial residual = 0.00246991, Final residual = 1.03226e-20, No Iterations 1
max/min T: 1.02032/0.980047
DILUPBiCGStab:  Solving for p, Initial residual = 0.000653284, Final residual = 6.77895e-20, No Iterations 1
max(mag(U)): 2
max/min p: 0.429674/0.371736
diagonal:  Solving for rho, Initial residual = 0, Final residual = 0, No Iterations 0
rho max/min : 1.05279 / 0.948261
time step continuity errors : sum local = 1.94289e-16, global = -6.55032e-17, cumulative = 0
max/min FaceAcCourant: 0.0295583/0.00533459
max/min Maf: 2.7712/0
max/min kappa: 1/0
ExecutionTime = 0.01 s  ClockTime = 0 s

Mean and max Characteristic Courant Numbers = 0.0285737 0.0295583
Courant Number max: 0.0287954
deltaT = 0.000172706
Time = 0.000436683

diagonal:  Solving for rho, Initial residual = 0, Final residual = 0, No Iterations 0
rho max/min : 1.08732 / 0.914639
PIMPLE: iteration 1
Creating matrix for fvOptions
DILUPBiCGStab:  Solving for Y.Liq, Initial residual = 0, Final residual = 0, No Iterations 0
Mass fraction min/max = 0/0
DILUPBiCGStab:  Solving for h, Initial residual = 0.251873, Final residual = 3.14547e-17, No Iterations 1
max/min T: 1.0333/0.966152
DILUPBiCGStab:  Solving for p, Initial residual = 0.243587, Final residual = 2.37848e-17, No Iterations 1
max(mag(U)): 2
max/min p: 0.449411/0.353698
diagonal:  Solving for rho, Initial residual = 0, Final residual = 0, No Iterations 0
rho max/min : 1.08732 / 0.915223
time step continuity errors : sum local = 1.19904e-16, global = -8.88178e-18, cumulative = 0
max/min FaceAcCourant: 0.0360975/0.00635184
max/min Maf: 2.84153/0
max/min kappa: 1/0
PIMPLE: iteration 2
Creating matrix for fvOptions
DILUPBiCGStab:  Solving for Y.Liq, Initial residual = 0, Final residual = 0, No Iterations 0
Mass fraction min/max = 0/0
DILUPBiCGStab:  Solving for h, Initial residual = 0.00723914, Final residual = 8.89203e-19, No Iterations 1
max/min T: 1.03377/0.966458
DILUPBiCGStab:  Solving for p, Initial residual = 0.00197437, Final residual = 1.3816e-19, No Iterations 1
max(mag(U)): 2
max/min p: 0.449612/0.353818
diagonal:  Solving for rho, Initial residual = 0, Final residual = 0, No Iterations 0
rho max/min : 1.08732 / 0.915243
time step continuity errors : sum local = 1.23235e-16, global = -3.21965e-17, cumulative = 0
max/min FaceAcCourant: 0.036075/0.00635635
max/min Maf: 2.83931/0
max/min kappa: 1/0
PIMPLE: iteration 3
Creating matrix for fvOptions
DILUPBiCGStab:  Solving for Y.Liq, Initial residual = 0, Final residual = 0, No Iterations 0
Mass fraction min/max = 0/0
DILUPBiCGStab:  Solving for h, Initial residual = 0.00218639, Final residual = 1.52717e-19, No Iterations 1
max/min T: 1.0339/0.966548
DILUPBiCGStab:  Solving for p, Initial residual = 0.000579082, Final residual = 3.45299e-20, No Iterations 1
max(mag(U)): 2
max/min p: 0.449671/0.353851
diagonal:  Solving for rho, Initial residual = 0, Final residual = 0, No Iterations 0
rho max/min : 1.08732 / 0.915244
time step continuity errors : sum local = 1.34337e-16, global = -7.77156e-18, cumulative = 0
max/min FaceAcCourant: 0.0360742/0.00635664
max/min Maf: 2.83912/0
max/min kappa: 1/0
ExecutionTime = 0.02 s  ClockTime = 0 s

Mean and max Characteristic Courant Numbers = 0.034287 0.0360742
Courant Number max: 0.0345412
deltaT = 0.000207151
Time = 0.000643834

diagonal:  Solving for rho, Initial residual = 0, Final residual = 0, No Iterations 0
rho max/min : 1.12873 / 0.875642
PIMPLE: iteration 1
Creating matrix for fvOptions
DILUPBiCGStab:  Solving for Y.Liq, Initial residual = 0, Final residual = 0, No Iterations 0
Mass fraction min/max = 0/0
DILUPBiCGStab:  Solving for h, Initial residual = 0.193158, Final residual = 6.59171e-18, No Iterations 1
max/min T: 1.04914/0.949816
DILUPBiCGStab:  Solving for p, Initial residual = 0.188072, Final residual = 2.77118e-17, No Iterations 1
max(mag(U)): 2
max/min p: 0.473672/0.332998
diagonal:  Solving for rho, Initial residual = 0, Final residual = 0, No Iterations 0
rho max/min : 1.12872 / 0.87648
time step continuity errors : sum local = 1.38778e-16, global = -1.11022e-18, cumulative = 0
max/min FaceAcCourant: 0.0442264/0.00755419
max/min Maf: 2.92739/0
max/min kappa: 1/0
PIMPLE: iteration 2
Creating matrix for fvOptions
DILUPBiCGStab:  Solving for Y.Liq, Initial residual = 0, Final residual = 0, No Iterations 0
Mass fraction min/max = 0/0
DILUPBiCGStab:  Solving for h, Initial residual = 0.00703594, Final residual = 1.50786e-19, No Iterations 1
max/min T: 1.04978/0.950276
DILUPBiCGStab:  Solving for p, Initial residual = 0.00194485, Final residual = 9.75596e-20, No Iterations 1
max(mag(U)): 2
max/min p: 0.47396/0.333172
diagonal:  Solving for rho, Initial residual = 0, Final residual = 0, No Iterations 0
rho max/min : 1.12872 / 0.876515
time step continuity errors : sum local = 1.02141e-16, global = 1.11022e-17, cumulative = 0
max/min FaceAcCourant: 0.0441856/0.00756342
max/min Maf: 2.92398/0
max/min kappa: 1/0
PIMPLE: iteration 3
Creating matrix for fvOptions
DILUPBiCGStab:  Solving for Y.Liq, Initial residual = 0, Final residual = 0, No Iterations 0
Mass fraction min/max = 0/0
DILUPBiCGStab:  Solving for h, Initial residual = 0.00218944, Final residual = 3.04399e-19, No Iterations 1
max/min T: 1.04996/0.950411
DILUPBiCGStab:  Solving for p, Initial residual = 0.000588254, Final residual = 7.40374e-20, No Iterations 1
max(mag(U)): 2
max/min p: 0.474045/0.33322
diagonal:  Solving for rho, Initial residual = 0, Final residual = 0, No Iterations 0
rho max/min : 1.12872 / 0.876516
time step continuity errors : sum local = 1.40998e-16, global = 5.55112e-18, cumulative = 0
max/min FaceAcCourant: 0.044184/0.00756395
max/min Maf: 2.92366/0
max/min kappa: 1/0
ExecutionTime = 0.02 s  ClockTime = 0 s

Mean and max Characteristic Courant Numbers = 0.0411429 0.044184
Courant Number max: 0.0414303
deltaT = 0.000248513
Time = 0.000892347

diagonal:  Solving for rho, Initial residual = 0, Final residual = 0, No Iterations 0
rho max/min : 1.17839 / 0.830055
PIMPLE: iteration 1
Creating matrix for fvOptions
DILUPBiCGStab:  Solving for Y.Liq, Initial residual = 0, Final residual = 0, No Iterations 0
Mass fraction min/max = 0/0
DILUPBiCGStab:  Solving for h, Initial residual = 0.161256, Final residual = 5.85162e-18, No Iterations 1
max/min T: 1.06781/0.930251
DILUPBiCGStab:  Solving for p, Initial residual = 0.157428, Final residual = 8.60241e-18, No Iterations 1
max(mag(U)): 2
max/min p: 0.50331/0.30931
diagonal:  Solving for rho, Initial residual = 0, Final residual = 0, No Iterations 0
rho max/min : 1.17837 / 0.831255
time step continuity errors : sum local = 1.75415e-16, global = 1.11022e-17, cumulative = 0
max/min FaceAcCourant: 0.0544495/0.0089692
max/min Maf: 3.03565/0
max/min kappa: 1/0
PIMPLE: iteration 2
Creating matrix for fvOptions
DILUPBiCGStab:  Solving for Y.Liq, Initial residual = 0, Final residual = 0, No Iterations 0
Mass fraction min/max = 0/0
DILUPBiCGStab:  Solving for h, Initial residual = 0.0072716, Final residual = 1.63431e-19, No Iterations 1
max/min T: 1.0687/0.930925
DILUPBiCGStab:  Solving for p, Initial residual = 0.00201504, Final residual = 2.31315e-19, No Iterations 1
max(mag(U)): 2
max/min p: 0.50373/0.309556
diagonal:  Solving for rho, Initial residual = 0, Final residual = 0, No Iterations 0
rho max/min : 1.17837 / 0.831314
time step continuity errors : sum local = 1.64313e-16, global = 2.22045e-18, cumulative = 0
max/min FaceAcCourant: 0.0543747/0.00898712
max/min Maf: 3.03038/0
max/min kappa: 1/0
PIMPLE: iteration 3
Creating matrix for fvOptions
DILUPBiCGStab:  Solving for Y.Liq, Initial residual = 0, Final residual = 0, No Iterations 0
Mass fraction min/max = 0/0
DILUPBiCGStab:  Solving for h, Initial residual = 0.00232053, Final residual = 3.71905e-19, No Iterations 1
max/min T: 1.06897/0.931125
DILUPBiCGStab:  Solving for p, Initial residual = 0.000640121, Final residual = 7.73811e-20, No Iterations 1
max(mag(U)): 2
max/min p: 0.503857/0.309624
diagonal:  Solving for rho, Initial residual = 0, Final residual = 0, No Iterations 0
rho max/min : 1.17837 / 0.831317
time step continuity errors : sum local = 1.77636e-16, global = 2.22045e-17, cumulative = 0
max/min FaceAcCourant: 0.0543709/0.00898808
max/min Maf: 3.02984/0
max/min kappa: 1/0
ExecutionTime = 0.03 s  ClockTime = 0 s

Mean and max Characteristic Courant Numbers = 0.0493835 0.0543709
Courant Number max: 0.0497026
deltaT = 0.000298215
Time = 0.00119056

diagonal:  Solving for rho, Initial residual = 0, Final residual = 0, No Iterations 0
rho max/min : 1.23795 / 0.777077
PIMPLE: iteration 1
Creating matrix for fvOptions
DILUPBiCGStab:  Solving for Y.Liq, Initial residual = 0, Final residual = 0, No Iterations 0
Mass fraction min/max = 0/0
DILUPBiCGStab:  Solving for h, Initial residual = 0.141478, Final residual = 9.28422e-18, No Iterations 1
max/min T: 1.08986/0.906808
DILUPBiCGStab:  Solving for p, Initial residual = 0.13787, Final residual = 2.04787e-17, No Iterations 1
max(mag(U)): 2
max/min p: 0.539659/0.282484
diagonal:  Solving for rho, Initial residual = 0, Final residual = 0, No Iterations 0
rho max/min : 1.23791 / 0.778788
time step continuity errors : sum local = 1.63203e-16, global = -1.44329e-17, cumulative = 0
max/min FaceAcCourant: 0.0674491/0.0106278
max/min Maf: 3.17391/0
max/min kappa: 1/0
PIMPLE: iteration 2
Creating matrix for fvOptions
DILUPBiCGStab:  Solving for Y.Liq, Initial residual = 0, Final residual = 0, No Iterations 0
Mass fraction min/max = 0/0
DILUPBiCGStab:  Solving for h, Initial residual = 0.0078071, Final residual = 3.51752e-19, No Iterations 1
max/min T: 1.0911/0.907809
DILUPBiCGStab:  Solving for p, Initial residual = 0.00216787, Final residual = 3.53666e-20, No Iterations 1
max(mag(U)): 2
max/min p: 0.540274/0.282833
diagonal:  Solving for rho, Initial residual = 0, Final residual = 0, No Iterations 0
rho max/min : 1.23791 / 0.778889
time step continuity errors : sum local = 1.44329e-16, global = -3.10862e-17, cumulative = 0
max/min FaceAcCourant: 0.06731/0.0106617
max/min Maf: 3.16562/0
max/min kappa: 1/0
PIMPLE: iteration 3
Creating matrix for fvOptions
DILUPBiCGStab:  Solving for Y.Liq, Initial residual = 0, Final residual = 0, No Iterations 0
Mass fraction min/max = 0/0
DILUPBiCGStab:  Solving for h, Initial residual = 0.00257962, Final residual = 8.71551e-20, No Iterations 1
max/min T: 1.09148/0.908107
DILUPBiCGStab:  Solving for p, Initial residual = 0.000703342, Final residual = 7.37084e-20, No Iterations 1
max(mag(U)): 2
max/min p: 0.54046/0.282928
diagonal:  Solving for rho, Initial residual = 0, Final residual = 0, No Iterations 0
rho max/min : 1.23791 / 0.778896
time step continuity errors : sum local = 1.39888e-16, global = -6.66134e-18, cumulative = 0
max/min FaceAcCourant: 0.0673015/0.0106634
max/min Maf: 3.1647/0
max/min kappa: 1/0
ExecutionTime = 0.03 s  ClockTime = 0 s

Mean and max Characteristic Courant Numbers = 0.0592987 0.0673015
Courant Number max: 0.0596431
deltaT = 0.000357715
Time = 0.00154828

diagonal:  Solving for rho, Initial residual = 0, Final residual = 0, No Iterations 0
rho max/min : 1.30933 / 0.716016
PIMPLE: iteration 1
Creating matrix for fvOptions
DILUPBiCGStab:  Solving for Y.Liq, Initial residual = 0, Final residual = 0, No Iterations 0
Mass fraction min/max = 0/0
DILUPBiCGStab:  Solving for h, Initial residual = 0.128037, Final residual = 1.6293e-17, No Iterations 1
max/min T: 1.1159/0.87875
DILUPBiCGStab:  Solving for p, Initial residual = 0.12419, Final residual = 1.30704e-17, No Iterations 1
max(mag(U)): 2
max/min p: 0.584408/0.252532
diagonal:  Solving for rho, Initial residual = 0, Final residual = 0, No Iterations 0
rho max/min : 1.30927 / 0.718442
time step continuity errors : sum local = 1.14353e-16, global = 1.66533e-17, cumulative = 0
max/min FaceAcCourant: 0.0841461/0.0125523
max/min Maf: 3.35328/0
max/min kappa: 1/0
PIMPLE: iteration 2
Creating matrix for fvOptions
DILUPBiCGStab:  Solving for Y.Liq, Initial residual = 0, Final residual = 0, No Iterations 0
Mass fraction min/max = 0/0
DILUPBiCGStab:  Solving for h, Initial residual = 0.00855535, Final residual = 3.81615e-19, No Iterations 1
max/min T: 1.11762/0.880232
DILUPBiCGStab:  Solving for p, Initial residual = 0.00237744, Final residual = 1.24413e-19, No Iterations 1
max(mag(U)): 2
max/min p: 0.585309/0.253019
diagonal:  Solving for rho, Initial residual = 0, Final residual = 0, No Iterations 0
rho max/min : 1.30927 / 0.718616
time step continuity errors : sum local = 1.25455e-16, global = 2.77556e-17, cumulative = 0
max/min FaceAcCourant: 0.0838836/0.012615
max/min Maf: 3.34001/0
max/min kappa: 1/0
PIMPLE: iteration 3
Creating matrix for fvOptions
DILUPBiCGStab:  Solving for Y.Liq, Initial residual = 0, Final residual = 0, No Iterations 0
Mass fraction min/max = 0/0
DILUPBiCGStab:  Solving for h, Initial residual = 0.00292481, Final residual = 1.81868e-19, No Iterations 1
max/min T: 1.11815/0.880677
DILUPBiCGStab:  Solving for p, Initial residual = 0.000805282, Final residual = 5.21206e-20, No Iterations 1
max(mag(U)): 2
max/min p: 0.585587/0.253152
diagonal:  Solving for rho, Initial residual = 0, Final residual = 0, No Iterations 0
rho max/min : 1.30927 / 0.718629
time step continuity errors : sum local = 1.05471e-16, global = 2.9976e-17, cumulative = 0
max/min FaceAcCourant: 0.0838639/0.0126183
max/min Maf: 3.33838/0
max/min kappa: 1/0
ExecutionTime = 0.04 s  ClockTime = 0 s

Mean and max Characteristic Courant Numbers = 0.071188 0.0838639
Courant Number max: 0.071543
deltaT = 0.000429051
Time = 0.00197733

diagonal:  Solving for rho, Initial residual = 0, Final residual = 0, No Iterations 0
rho max/min : 1.39487 / 0.646343
PIMPLE: iteration 1
Creating matrix for fvOptions
DILUPBiCGStab:  Solving for Y.Liq, Initial residual = 0, Final residual = 0, No Iterations 0
Mass fraction min/max = 0/0
DILUPBiCGStab:  Solving for h, Initial residual = 0.118232, Final residual = 1.13545e-18, No Iterations 1
max/min T: 1.14673/0.84519
DILUPBiCGStab:  Solving for p, Initial residual = 0.11389, Final residual = 1.10426e-17, No Iterations 1
max(mag(U)): 2
max/min p: 0.639766/0.219667
diagonal:  Solving for rho, Initial residual = 0, Final residual = 0, No Iterations 0
rho max/min : 1.39476 / 0.649756
time step continuity errors : sum local = 1.42109e-16, global = 2.22045e-18, cumulative = 0
max/min FaceAcCourant: 0.105998/0.0147718
max/min Maf: 3.59101/0
max/min kappa: 1/0
PIMPLE: iteration 2
Creating matrix for fvOptions
DILUPBiCGStab:  Solving for Y.Liq, Initial residual = 0, Final residual = 0, No Iterations 0
Mass fraction min/max = 0/0
DILUPBiCGStab:  Solving for h, Initial residual = 0.00948659, Final residual = 7.49672e-19, No Iterations 1
max/min T: 1.1491/0.847397
DILUPBiCGStab:  Solving for p, Initial residual = 0.00263221, Final residual = 2.14526e-19, No Iterations 1
max(mag(U)): 2
max/min p: 0.641091/0.220341
diagonal:  Solving for rho, Initial residual = 0, Final residual = 0, No Iterations 0
rho max/min : 1.39476 / 0.650053
time step continuity errors : sum local = 1.26565e-16, global = 1.11022e-17, cumulative = 0
max/min FaceAcCourant: 0.105493/0.0148864
max/min Maf: 3.56923/0
max/min kappa: 1/0
PIMPLE: iteration 3
Creating matrix for fvOptions
DILUPBiCGStab:  Solving for Y.Liq, Initial residual = 0, Final residual = 0, No Iterations 0
Mass fraction min/max = 0/0
DILUPBiCGStab:  Solving for h, Initial residual = 0.00336906, Final residual = 7.93816e-19, No Iterations 1
max/min T: 1.14984/0.848066
DILUPBiCGStab:  Solving for p, Initial residual = 0.00093221, Final residual = 6.8141e-20, No Iterations 1
max(mag(U)): 2
max/min p: 0.641503/0.220525
diagonal:  Solving for rho, Initial residual = 0, Final residual = 0, No Iterations 0
rho max/min : 1.39476 / 0.65008
time step continuity errors : sum local = 1.26565e-16, global = 4.44089e-18, cumulative = 0
max/min FaceAcCourant: 0.105446/0.0148926
max/min Maf: 3.56624/0
max/min kappa: 1/0
ExecutionTime = 0.04 s  ClockTime = 0 s

Mean and max Characteristic Courant Numbers = 0.0854738 0.105446
Courant Number max: 0.0858102
deltaT = 0.000515758
Time = 0.00249309

diagonal:  Solving for rho, Initial residual = 0, Final residual = 0, No Iterations 0
rho max/min : 1.49753 / 0.567679
PIMPLE: iteration 1
Creating matrix for fvOptions
DILUPBiCGStab:  Solving for Y.Liq, Initial residual = 0, Final residual = 0, No Iterations 0
Mass fraction min/max = 0/0
DILUPBiCGStab:  Solving for h, Initial residual = 0.111142, Final residual = 1.07378e-17, No Iterations 1
max/min T: 1.18342/0.804982
DILUPBiCGStab:  Solving for p, Initial residual = 0.105756, Final residual = 2.55535e-18, No Iterations 1
max(mag(U)): 2
max/min p: 0.708792/0.184324
diagonal:  Solving for rho, Initial residual = 0, Final residual = 0, No Iterations 0
rho max/min : 1.49734 / 0.572447
time step continuity errors : sum local = 1.75415e-16, global = 2.22045e-17, cumulative = 0
max/min FaceAcCourant: 0.135616/0.0173446
max/min Maf: 3.91631/0
max/min kappa: 1/0
PIMPLE: iteration 2
Creating matrix for fvOptions
DILUPBiCGStab:  Solving for Y.Liq, Initial residual = 0, Final residual = 0, No Iterations 0
Mass fraction min/max = 0/0
DILUPBiCGStab:  Solving for h, Initial residual = 0.0106003, Final residual = 7.00281e-19, No Iterations 1
max/min T: 1.18668/0.808289
DILUPBiCGStab:  Solving for p, Initial residual = 0.00293406, Final residual = 2.08306e-19, No Iterations 1
max(mag(U)): 2
max/min p: 0.710752/0.185245
diagonal:  Solving for rho, Initial residual = 0, Final residual = 0, No Iterations 0
rho max/min : 1.49736 / 0.572955
time step continuity errors : sum local = 1.59872e-16, global = 1.11022e-17, cumulative = 0
max/min FaceAcCourant: 0.134609/0.0175534
max/min Maf: 3.87927/0
max/min kappa: 1/0
PIMPLE: iteration 3
Creating matrix for fvOptions
DILUPBiCGStab:  Solving for Y.Liq, Initial residual = 0, Final residual = 0, No Iterations 0
Mass fraction min/max = 0/0
DILUPBiCGStab:  Solving for h, Initial residual = 0.00391957, Final residual = 7.08953e-19, No Iterations 1
max/min T: 1.18772/0.809304
DILUPBiCGStab:  Solving for p, Initial residual = 0.00108899, Final residual = 1.03842e-19, No Iterations 1
max(mag(U)): 2
max/min p: 0.711375/0.185497
diagonal:  Solving for rho, Initial residual = 0, Final residual = 0, No Iterations 0
rho max/min : 1.49736 / 0.573014
time step continuity errors : sum local = 1.46549e-16, global = 1.11022e-17, cumulative = 0
max/min FaceAcCourant: 0.134493/0.0175654
max/min Maf: 3.87351/0
max/min kappa: 1/0
ExecutionTime = 0.05 s  ClockTime = 0 s

Mean and max Characteristic Courant Numbers = 0.102888 0.134493
Courant Number max: 0.103152
deltaT = 0.000619777
Time = 0.00311286

diagonal:  Solving for rho, Initial residual = 0, Final residual = 0, No Iterations 0
rho max/min : 1.62064 / 0.480405
PIMPLE: iteration 1
Creating matrix for fvOptions
DILUPBiCGStab:  Solving for Y.Liq, Initial residual = 0, Final residual = 0, No Iterations 0
Mass fraction min/max = 0/0
DILUPBiCGStab:  Solving for h, Initial residual = 0.1057, Final residual = 1.25626e-17, No Iterations 1
max/min T: 1.22727/0.756845
DILUPBiCGStab:  Solving for p, Initial residual = 0.0980988, Final residual = 1.47193e-17, No Iterations 1
max(mag(U)): 2
max/min p: 0.79543/0.147419
diagonal:  Solving for rho, Initial residual = 0, Final residual = 0, No Iterations 0
rho max/min : 1.62032 / 0.486952
time step continuity errors : sum local = 1.70974e-16, global = 3.10862e-17, cumulative = 0
max/min FaceAcCourant: 0.176736/0.0202441
max/min Maf: 4.38019/0
max/min kappa: 1/0
PIMPLE: iteration 2
Creating matrix for fvOptions
DILUPBiCGStab:  Solving for Y.Liq, Initial residual = 0, Final residual = 0, No Iterations 0
Mass fraction min/max = 0/0
DILUPBiCGStab:  Solving for h, Initial residual = 0.011799, Final residual = 1.75058e-18, No Iterations 1
max/min T: 1.23174/0.761837
DILUPBiCGStab:  Solving for p, Initial residual = 0.00324304, Final residual = 2.22047e-19, No Iterations 1
max(mag(U)): 2
max/min p: 0.798339/0.148654
diagonal:  Solving for rho, Initial residual = 0, Final residual = 0, No Iterations 0
rho max/min : 1.62035 / 0.487814
time step continuity errors : sum local = 1.61537e-16, global = 3.05311e-17, cumulative = 0
max/min FaceAcCourant: 0.174657/0.0206241
max/min Maf: 4.31444/0
max/min kappa: 1/0
PIMPLE: iteration 3
Creating matrix for fvOptions
DILUPBiCGStab:  Solving for Y.Liq, Initial residual = 0, Final residual = 0, No Iterations 0
Mass fraction min/max = 0/0
DILUPBiCGStab:  Solving for h, Initial residual = 0.0045614, Final residual = 3.0368e-19, No Iterations 1
max/min T: 1.23319/0.763376
DILUPBiCGStab:  Solving for p, Initial residual = 0.00126513, Final residual = 2.02497e-19, No Iterations 1
max(mag(U)): 2
max/min p: 0.799283/0.148992
diagonal:  Solving for rho, Initial residual = 0, Final residual = 0, No Iterations 0
rho max/min : 1.62035 / 0.487939
time step continuity errors : sum local = 1.90403e-16, global = 7.21645e-18, cumulative = 0
max/min FaceAcCourant: 0.174357/0.0206475
max/min Maf: 4.30269/0
max/min kappa: 1/0
ExecutionTime = 0.05 s  ClockTime = 0 s

Mean and max Characteristic Courant Numbers = 0.12387 0.174357
Courant Number max: 0.123955
deltaT = 0.00074562
Time = 0.00385848

diagonal:  Solving for rho, Initial residual = 0, Final residual = 0, No Iterations 0
rho max/min : 1.76832 / 0.385589
PIMPLE: iteration 1
Creating matrix for fvOptions
DILUPBiCGStab:  Solving for Y.Liq, Initial residual = 0, Final residual = 0, No Iterations 0
Mass fraction min/max = 0/0
DILUPBiCGStab:  Solving for h, Initial residual = 0.101583, Final residual = 1.38964e-17, No Iterations 1
max/min T: 1.28007/0.699096
DILUPBiCGStab:  Solving for p, Initial residual = 0.0901075, Final residual = 7.87288e-18, No Iterations 1
max(mag(U)): 2
max/min p: 0.905159/0.110282
diagonal:  Solving for rho, Initial residual = 0, Final residual = 0, No Iterations 0
rho max/min : 1.76779 / 0.394375
time step continuity errors : sum local = 1.89293e-16, global = 3.94129e-17, cumulative = 0
max/min FaceAcCourant: 0.237246/0.0234867
max/min Maf: 5.08533/0
max/min kappa: 1/0
PIMPLE: iteration 2
Creating matrix for fvOptions
DILUPBiCGStab:  Solving for Y.Liq, Initial residual = 0, Final residual = 0, No Iterations 0
Mass fraction min/max = 0/0
DILUPBiCGStab:  Solving for h, Initial residual = 0.0130418, Final residual = 8.46083e-19, No Iterations 1
max/min T: 1.28617/0.706711
DILUPBiCGStab:  Solving for p, Initial residual = 0.00370047, Final residual = 5.40506e-19, No Iterations 1
max(mag(U)): 2
max/min p: 0.909498/0.111895
diagonal:  Solving for rho, Initial residual = 0, Final residual = 0, No Iterations 0
rho max/min : 1.76785 / 0.39583
time step continuity errors : sum local = 1.83742e-16, global = -1.38778e-17, cumulative = 0
max/min FaceAcCourant: 0.232697/0.0241843
max/min Maf: 4.96087/0
max/min kappa: 1/0
PIMPLE: iteration 3
Creating matrix for fvOptions
DILUPBiCGStab:  Solving for Y.Liq, Initial residual = 0, Final residual = 0, No Iterations 0
Mass fraction min/max = 0/0
DILUPBiCGStab:  Solving for h, Initial residual = 0.00528857, Final residual = 3.36457e-19, No Iterations 1
max/min T: 1.28822/0.709071
DILUPBiCGStab:  Solving for p, Initial residual = 0.00144312, Final residual = 1.88001e-19, No Iterations 1
max(mag(U)): 2
max/min p: 0.910949/0.112345
diagonal:  Solving for rho, Initial residual = 0, Final residual = 0, No Iterations 0
rho max/min : 1.76785 / 0.396098
time step continuity errors : sum local = 1.64868e-16, global = 1.72085e-17, cumulative = 0
max/min FaceAcCourant: 0.231862/0.0242307
max/min Maf: 4.93484/0
max/min kappa: 1/0
ExecutionTime = 0.06 s  ClockTime = 0 s

Mean and max Characteristic Courant Numbers = 0.149422 0.231862
Courant Number max: 0.149124
deltaT = 0.000896574
Time = 0.00475506

diagonal:  Solving for rho, Initial residual = 0, Final residual = 0, No Iterations 0
rho max/min : 1.9452 / 0.285665
PIMPLE: iteration 1
Creating matrix for fvOptions
DILUPBiCGStab:  Solving for Y.Liq, Initial residual = 0, Final residual = 0, No Iterations 0
Mass fraction min/max = 0/0
DILUPBiCGStab:  Solving for h, Initial residual = 0.0983804, Final residual = 1.81366e-17, No Iterations 1
max/min T: 1.34413/0.629615
DILUPBiCGStab:  Solving for p, Initial residual = 0.0805616, Final residual = 5.31654e-18, No Iterations 1
max(mag(U)): 2
max/min p: 1.04537/0.0747936
diagonal:  Solving for rho, Initial residual = 0, Final residual = 0, No Iterations 0
rho max/min : 1.94433 / 0.296981
time step continuity errors : sum local = 1.63758e-16, global = 6.10623e-18, cumulative = 0
max/min FaceAcCourant: 0.333748/0.0269967
max/min Maf: 6.26905/0
max/min kappa: 1/0
PIMPLE: iteration 2
Creating matrix for fvOptions
DILUPBiCGStab:  Solving for Y.Liq, Initial residual = 0, Final residual = 0, No Iterations 0
Mass fraction min/max = 0/0
DILUPBiCGStab:  Solving for h, Initial residual = 0.0141944, Final residual = 4.01847e-19, No Iterations 1
max/min T: 1.3524/0.641354
DILUPBiCGStab:  Solving for p, Initial residual = 0.00420654, Final residual = 1.01776e-18, No Iterations 1
max(mag(U)): 2
max/min p: 1.05185/0.0768107
diagonal:  Solving for rho, Initial residual = 0, Final residual = 0, No Iterations 0
rho max/min : 1.94442 / 0.299409
time step continuity errors : sum local = 1.44329e-16, global = -1.55431e-17, cumulative = 0
max/min FaceAcCourant: 0.322936/0.0283016
max/min Maf: 6.01018/0
max/min kappa: 1/0
PIMPLE: iteration 3
Creating matrix for fvOptions
DILUPBiCGStab:  Solving for Y.Liq, Initial residual = 0, Final residual = 0, No Iterations 0
Mass fraction min/max = 0/0
DILUPBiCGStab:  Solving for h, Initial residual = 0.00605597, Final residual = 2.92185e-19, No Iterations 1
max/min T: 1.35528/0.64499
DILUPBiCGStab:  Solving for p, Initial residual = 0.0015908, Final residual = 2.00127e-19, No Iterations 1
max(mag(U)): 2
max/min p: 1.0541/0.0773965
diagonal:  Solving for rho, Initial residual = 0, Final residual = 0, No Iterations 0
rho max/min : 1.94442 / 0.299991
time step continuity errors : sum local = 1.77081e-16, global = 2.60902e-17, cumulative = 0
max/min FaceAcCourant: 0.320367/0.0283919
max/min Maf: 5.94554/0
max/min kappa: 1/0
ExecutionTime = 0.06 s  ClockTime = 0 s

Mean and max Characteristic Courant Numbers = 0.180435 0.320367
Courant Number max: 0.179315
deltaT = 0.00104493
Time = 0.00579999

diagonal:  Solving for rho, Initial residual = 0, Final residual = 0, No Iterations 0
rho max/min : 2.15022 / 0.187981
PIMPLE: iteration 1
Creating matrix for fvOptions
DILUPBiCGStab:  Solving for Y.Liq, Initial residual = 0, Final residual = 0, No Iterations 0
Mass fraction min/max = 0/0
DILUPBiCGStab:  Solving for h, Initial residual = 0.093335, Final residual = 2.27843e-17, No Iterations 1
max/min T: 1.42067/0.548021
DILUPBiCGStab:  Solving for p, Initial residual = 0.070926, Final residual = 5.55547e-18, No Iterations 1
max(mag(U)): 2
max/min p: 1.2212/0.0466034
diagonal:  Solving for rho, Initial residual = 0, Final residual = 0, No Iterations 0
rho max/min : 2.14899 / 0.212598
time step continuity errors : sum local = 1.88183e-16, global = -1.66533e-18, cumulative = 0
max/min FaceAcCourant: 0.411069/0.0289434
max/min Maf: 7.10127/0
max/min kappa: 1/0
PIMPLE: iteration 2
Creating matrix for fvOptions
DILUPBiCGStab:  Solving for Y.Liq, Initial residual = 0, Final residual = 0, No Iterations 0
Mass fraction min/max = 0/0
DILUPBiCGStab:  Solving for h, Initial residual = 0.0147052, Final residual = 1.42763e-18, No Iterations 1
max/min T: 1.4312/0.571672
DILUPBiCGStab:  Solving for p, Initial residual = 0.00387879, Final residual = 6.05415e-19, No Iterations 1
max(mag(U)): 2
max/min p: 1.23034/0.0486446
diagonal:  Solving for rho, Initial residual = 0, Final residual = 0, No Iterations 0
rho max/min : 2.14914 / 0.212729
time step continuity errors : sum local = 1.77913e-16, global = 9.15934e-18, cumulative = 0
max/min FaceAcCourant: 0.410202/0.0295613
max/min Maf: 6.93816/0
max/min kappa: 1/0
PIMPLE: iteration 3
Creating matrix for fvOptions
DILUPBiCGStab:  Solving for Y.Liq, Initial residual = 0, Final residual = 0, No Iterations 0
Mass fraction min/max = 0/0
DILUPBiCGStab:  Solving for h, Initial residual = 0.00684383, Final residual = 3.57261e-19, No Iterations 1
max/min T: 1.435/0.576533
DILUPBiCGStab:  Solving for p, Initial residual = 0.00175205, Final residual = 2.19261e-19, No Iterations 1
max(mag(U)): 2
max/min p: 1.23361/0.0490595
diagonal:  Solving for rho, Initial residual = 0, Final residual = 0, No Iterations 0
rho max/min : 2.14915 / 0.212735
time step continuity errors : sum local = 1.67644e-16, global = -2.77556e-17, cumulative = 0
max/min FaceAcCourant: 0.410164/0.0296867
max/min Maf: 6.9082/0
max/min kappa: 1/0
ExecutionTime = 0.07 s  ClockTime = 0 s

Mean and max Characteristic Courant Numbers = 0.210881 0.410164
Courant Number max: 0.208986
deltaT = 0.00119174
Time = 0.00699172

diagonal:  Solving for rho, Initial residual = 0, Final residual = 0, No Iterations 0
rho max/min : 2.38264 / 0.11322
PIMPLE: iteration 1
Creating matrix for fvOptions
DILUPBiCGStab:  Solving for Y.Liq, Initial residual = 0, Final residual = 0, No Iterations 0
Mass fraction min/max = 0/0
DILUPBiCGStab:  Solving for h, Initial residual = 0.0870439, Final residual = 9.08048e-18, No Iterations 1
max/min T: 1.51071/0.468032
DILUPBiCGStab:  Solving for p, Initial residual = 0.061902, Final residual = 3.65718e-18, No Iterations 1
max(mag(U)): 2
max/min p: 1.43878/0.027151
diagonal:  Solving for rho, Initial residual = 0, Final residual = 0, No Iterations 0
rho max/min : 2.38097 / 0.145028
time step continuity errors : sum local = 1.82354e-16, global = 4.63518e-17, cumulative = 0
max/min FaceAcCourant: 0.466859/0.0305058
max/min Maf: 7.65198/0
max/min kappa: 1/0
PIMPLE: iteration 2
Creating matrix for fvOptions
DILUPBiCGStab:  Solving for Y.Liq, Initial residual = 0, Final residual = 0, No Iterations 0
Mass fraction min/max = 0/0
DILUPBiCGStab:  Solving for h, Initial residual = 0.0141788, Final residual = 1.11186e-18, No Iterations 1
max/min T: 1.52352/0.502973
DILUPBiCGStab:  Solving for p, Initial residual = 0.00385166, Final residual = 7.75028e-19, No Iterations 1
max(mag(U)): 2
max/min p: 1.45111/0.0292313
diagonal:  Solving for rho, Initial residual = 0, Final residual = 0, No Iterations 0
rho max/min : 2.38119 / 0.145293
time step continuity errors : sum local = 1.40443e-16, global = -2.77556e-18, cumulative = 0
max/min FaceAcCourant: 0.464183/0.031624
max/min Maf: 7.3391/0
max/min kappa: 1/0
PIMPLE: iteration 3
Creating matrix for fvOptions
DILUPBiCGStab:  Solving for Y.Liq, Initial residual = 0, Final residual = 0, No Iterations 0
Mass fraction min/max = 0/0
DILUPBiCGStab:  Solving for h, Initial residual = 0.00715125, Final residual = 3.54518e-19, No Iterations 1
max/min T: 1.5283/0.509955
DILUPBiCGStab:  Solving for p, Initial residual = 0.00182785, Final residual = 1.68299e-19, No Iterations 1
max(mag(U)): 2
max/min p: 1.45568/0.0296397
diagonal:  Solving for rho, Initial residual = 0, Final residual = 0, No Iterations 0
rho max/min : 2.3812 / 0.145305
time step continuity errors : sum local = 1.6348e-16, global = 2.7478e-17, cumulative = 0
max/min FaceAcCourant: 0.464056/0.0318427
max/min Maf: 7.2867/0
max/min kappa: 1/0
ExecutionTime = 0.07 s  ClockTime = 0 s

Mean and max Characteristic Courant Numbers = 0.240226 0.464056
Courant Number max: 0.238347
deltaT = 0.00133653
Time = 0.00832825

diagonal:  Solving for rho, Initial residual = 0, Final residual = 0, No Iterations 0
rho max/min : 2.64145 / 0.069683
PIMPLE: iteration 1
Creating matrix for fvOptions
DILUPBiCGStab:  Solving for Y.Liq, Initial residual = 0, Final residual = 0, No Iterations 0
Mass fraction min/max = 0/0
DILUPBiCGStab:  Solving for h, Initial residual = 0.0807915, Final residual = 8.20507e-18, No Iterations 1
max/min T: 1.61538/0.402907
DILUPBiCGStab:  Solving for p, Initial residual = 0.0537017, Final residual = 6.24967e-18, No Iterations 1
max(mag(U)): 2
max/min p: 1.70534/0.015398
diagonal:  Solving for rho, Initial residual = 0, Final residual = 0, No Iterations 0
rho max/min : 2.63923 / 0.095543
time step continuity errors : sum local = 1.74166e-16, global = 3.19189e-18, cumulative = 0
max/min FaceAcCourant: 0.520836/0.0317427
max/min Maf: 8.20402/0
max/min kappa: 1/0
PIMPLE: iteration 2
Creating matrix for fvOptions
DILUPBiCGStab:  Solving for Y.Liq, Initial residual = 0, Final residual = 0, No Iterations 0
Mass fraction min/max = 0/0
DILUPBiCGStab:  Solving for h, Initial residual = 0.0135142, Final residual = 1.23405e-18, No Iterations 1
max/min T: 1.63041/0.439949
DILUPBiCGStab:  Solving for p, Initial residual = 0.00334794, Final residual = 6.66393e-19, No Iterations 1
max(mag(U)): 2
max/min p: 1.7214/0.0168688
diagonal:  Solving for rho, Initial residual = 0, Final residual = 0, No Iterations 0
rho max/min : 2.63952 / 0.0958566
time step continuity errors : sum local = 1.52101e-16, global = 9.71445e-18, cumulative = 0
max/min FaceAcCourant: 0.51586/0.0331698
max/min Maf: 7.77606/0
max/min kappa: 1/0
PIMPLE: iteration 3
Creating matrix for fvOptions
DILUPBiCGStab:  Solving for Y.Liq, Initial residual = 0, Final residual = 0, No Iterations 0
Mass fraction min/max = 0/0
DILUPBiCGStab:  Solving for h, Initial residual = 0.0072173, Final residual = 1.27543e-18, No Iterations 1
max/min T: 1.63621/0.447177
DILUPBiCGStab:  Solving for p, Initial residual = 0.00166503, Final residual = 1.33035e-19, No Iterations 1
max(mag(U)): 2
max/min p: 1.72755/0.0171489
diagonal:  Solving for rho, Initial residual = 0, Final residual = 0, No Iterations 0
rho max/min : 2.63955 / 0.0958731
time step continuity errors : sum local = 1.52933e-16, global = -5.27356e-18, cumulative = 0
max/min FaceAcCourant: 0.515598/0.0334411
max/min Maf: 7.70904/0
max/min kappa: 1/0
ExecutionTime = 0.08 s  ClockTime = 0 s

Mean and max Characteristic Courant Numbers = 0.269007 0.515598
Courant Number max: 0.267305
deltaT = 0.00149128
Time = 0.00981953

diagonal:  Solving for rho, Initial residual = 0, Final residual = 0, No Iterations 0
rho max/min : 2.92781 / 0.0407174
PIMPLE: iteration 1
Creating matrix for fvOptions
DILUPBiCGStab:  Solving for Y.Liq, Initial residual = 0, Final residual = 0, No Iterations 0
Mass fraction min/max = 0/0
DILUPBiCGStab:  Solving for h, Initial residual = 0.0765349, Final residual = 7.33971e-18, No Iterations 1
max/min T: 1.73657/0.343354
DILUPBiCGStab:  Solving for p, Initial residual = 0.0464941, Final residual = 7.5335e-18, No Iterations 1
max(mag(U)): 2
max/min p: 2.0316/0.00834189
diagonal:  Solving for rho, Initial residual = 0, Final residual = 0, No Iterations 0
rho max/min : 2.92474 / 0.0607382
time step continuity errors : sum local = 1.50643e-16, global = 1.51962e-17, cumulative = 0
max/min FaceAcCourant: 0.578466/0.032696
max/min Maf: 8.84612/0
max/min kappa: 1/0
PIMPLE: iteration 2
Creating matrix for fvOptions
DILUPBiCGStab:  Solving for Y.Liq, Initial residual = 0, Final residual = 0, No Iterations 0
Mass fraction min/max = 0/0
DILUPBiCGStab:  Solving for h, Initial residual = 0.0144599, Final residual = 1.01708e-18, No Iterations 1
max/min T: 1.75388/0.381564
DILUPBiCGStab:  Solving for p, Initial residual = 0.00375983, Final residual = 3.98991e-19, No Iterations 1
max(mag(U)): 2
max/min p: 2.05211/0.00932529
diagonal:  Solving for rho, Initial residual = 0, Final residual = 0, No Iterations 0
rho max/min : 2.9251 / 0.0610991
time step continuity errors : sum local = 1.80203e-16, global = 2.46331e-17, cumulative = 0
max/min FaceAcCourant: 0.569142/0.0344673
max/min Maf: 8.25626/0
max/min kappa: 1/0
PIMPLE: iteration 3
Creating matrix for fvOptions
DILUPBiCGStab:  Solving for Y.Liq, Initial residual = 0, Final residual = 0, No Iterations 0
Mass fraction min/max = 0/0
DILUPBiCGStab:  Solving for h, Initial residual = 0.00886049, Final residual = 1.72911e-19, No Iterations 1
max/min T: 1.76082/0.388892
DILUPBiCGStab:  Solving for p, Initial residual = 0.00169331, Final residual = 1.69783e-19, No Iterations 1
max(mag(U)): 2
max/min p: 2.06027/0.00950756
diagonal:  Solving for rho, Initial residual = 0, Final residual = 0, No Iterations 0
rho max/min : 2.92516 / 0.0611196
time step continuity errors : sum local = 1.99354e-16, global = -3.95517e-18, cumulative = 0
max/min FaceAcCourant: 0.568617/0.0347967
max/min Maf: 8.17055/0
max/min kappa: 1/0
ExecutionTime = 0.08 s  ClockTime = 0 s

Mean and max Characteristic Courant Numbers = 0.299294 0.568617
Courant Number max: 0.298256
deltaT = 0.00150732
Time = 0.0113268

diagonal:  Solving for rho, Initial residual = 0, Final residual = 0, No Iterations 0
rho max/min : 3.21383 / 0.0259923
PIMPLE: iteration 1
Creating matrix for fvOptions
DILUPBiCGStab:  Solving for Y.Liq, Initial residual = 0, Final residual = 0, No Iterations 0
Mass fraction min/max = 0/0
DILUPBiCGStab:  Solving for h, Initial residual = 0.0676752, Final residual = 1.17964e-18, No Iterations 1
max/min T: 1.86698/0.298639
DILUPBiCGStab:  Solving for p, Initial residual = 0.0384208, Final residual = 5.45259e-18, No Iterations 1
max(mag(U)): 2
max/min p: 2.39877/0.00461859
diagonal:  Solving for rho, Initial residual = 0, Final residual = 0, No Iterations 0
rho max/min : 3.2121 / 0.0386637
time step continuity errors : sum local = 1.81938e-16, global = 2.40086e-17, cumulative = 0
max/min FaceAcCourant: 0.5808/0.0308206
max/min Maf: 9.42226/0
max/min kappa: 1/0
PIMPLE: iteration 2
Creating matrix for fvOptions
DILUPBiCGStab:  Solving for Y.Liq, Initial residual = 0, Final residual = 0, No Iterations 0
Mass fraction min/max = 0/0
DILUPBiCGStab:  Solving for h, Initial residual = 0.012441, Final residual = 1.89203e-19, No Iterations 1
max/min T: 1.88345/0.331755
DILUPBiCGStab:  Solving for p, Initial residual = 0.00282597, Final residual = 5.87098e-19, No Iterations 1
max(mag(U)): 2
max/min p: 2.4202/0.00516813
diagonal:  Solving for rho, Initial residual = 0, Final residual = 0, No Iterations 0
rho max/min : 3.21246 / 0.0389453
time step continuity errors : sum local = 1.67921e-16, global = -5.82867e-18, cumulative = 0
max/min FaceAcCourant: 0.569369/0.0324846
max/min Maf: 8.76368/0
max/min kappa: 1/0
PIMPLE: iteration 3
Creating matrix for fvOptions
DILUPBiCGStab:  Solving for Y.Liq, Initial residual = 0, Final residual = 0, No Iterations 0
Mass fraction min/max = 0/0
DILUPBiCGStab:  Solving for h, Initial residual = 0.00716498, Final residual = 1.3982e-18, No Iterations 1
max/min T: 1.88998/0.338175
DILUPBiCGStab:  Solving for p, Initial residual = 0.0014304, Final residual = 2.55469e-19, No Iterations 1
max(mag(U)): 2
max/min p: 2.42863/0.00527056
diagonal:  Solving for rho, Initial residual = 0, Final residual = 0, No Iterations 0
rho max/min : 3.21251 / 0.0389632
time step continuity errors : sum local = 1.80619e-16, global = -3.17107e-17, cumulative = 0
max/min FaceAcCourant: 0.568647/0.0327974
max/min Maf: 8.66908/0
max/min kappa: 1/0
ExecutionTime = 0.09 s  ClockTime = 0 s

Mean and max Characteristic Courant Numbers = 0.30182 0.568647
Courant Number max: 0.301463
deltaT = 0.00150732
Time = 0.0128342

diagonal:  Solving for rho, Initial residual = 0, Final residual = 0, No Iterations 0
rho max/min : 3.49987 / 0.0168069
PIMPLE: iteration 1
Creating matrix for fvOptions
DILUPBiCGStab:  Solving for Y.Liq, Initial residual = 0, Final residual = 0, No Iterations 0
Mass fraction min/max = 0/0
DILUPBiCGStab:  Solving for h, Initial residual = 0.060431, Final residual = 6.00232e-18, No Iterations 1
max/min T: 2.0005/0.260513
DILUPBiCGStab:  Solving for p, Initial residual = 0.0319729, Final residual = 6.53512e-18, No Iterations 1
max(mag(U)): 2
max/min p: 2.79921/0.00257645
diagonal:  Solving for rho, Initial residual = 0, Final residual = 0, No Iterations 0
rho max/min : 3.49814 / 0.0247248
time step continuity errors : sum local = 1.55882e-16, global = 4.89192e-18, cumulative = 0
max/min FaceAcCourant: 0.575875/0.0287861
max/min Maf: 10.0026/0
max/min kappa: 1/0
PIMPLE: iteration 2
Creating matrix for fvOptions
DILUPBiCGStab:  Solving for Y.Liq, Initial residual = 0, Final residual = 0, No Iterations 0
Mass fraction min/max = 0/0
DILUPBiCGStab:  Solving for h, Initial residual = 0.00970513, Final residual = 2.24694e-18, No Iterations 1
max/min T: 2.01565/0.288786
DILUPBiCGStab:  Solving for p, Initial residual = 0.00185522, Final residual = 1.14019e-19, No Iterations 1
max(mag(U)): 2
max/min p: 2.82062/0.00287996
diagonal:  Solving for rho, Initial residual = 0, Final residual = 0, No Iterations 0
rho max/min : 3.4984 / 0.0249316
time step continuity errors : sum local = 1.79232e-16, global = -5.82867e-18, cumulative = 0
max/min FaceAcCourant: 0.562803/0.0303079
max/min Maf: 9.28474/0
max/min kappa: 1/0
PIMPLE: iteration 3
Creating matrix for fvOptions
DILUPBiCGStab:  Solving for Y.Liq, Initial residual = 0, Final residual = 0, No Iterations 0
Mass fraction min/max = 0/0
DILUPBiCGStab:  Solving for h, Initial residual = 0.0053166, Final residual = 5.46603e-19, No Iterations 1
max/min T: 2.02167/0.294351
DILUPBiCGStab:  Solving for p, Initial residual = 0.00110258, Final residual = 1.86565e-19, No Iterations 1
max(mag(U)): 2
max/min p: 2.82911/0.0029371
diagonal:  Solving for rho, Initial residual = 0, Final residual = 0, No Iterations 0
rho max/min : 3.49848 / 0.0249455
time step continuity errors : sum local = 1.6067e-16, global = 1.52309e-17, cumulative = 0
max/min FaceAcCourant: 0.561931/0.0305986
max/min Maf: 9.18231/0
max/min kappa: 1/0
ExecutionTime = 0.1 s  ClockTime = 0 s

Mean and max Characteristic Courant Numbers = 0.301075 0.561931
Courant Number max: 0.301463
deltaT = 0.00150732
Time = 0.0143415

diagonal:  Solving for rho, Initial residual = 0, Final residual = 0, No Iterations 0
rho max/min : 3.78445 / 0.0109279
PIMPLE: iteration 1
Creating matrix for fvOptions
DILUPBiCGStab:  Solving for Y.Liq, Initial residual = 0, Final residual = 0, No Iterations 0
Mass fraction min/max = 0/0
DILUPBiCGStab:  Solving for h, Initial residual = 0.0547615, Final residual = 4.5197e-18, No Iterations 1
max/min T: 2.13591/0.227545
DILUPBiCGStab:  Solving for p, Initial residual = 0.0269109, Final residual = 1.54154e-18, No Iterations 1
max(mag(U)): 2
max/min p: 3.23165/0.00144599
diagonal:  Solving for rho, Initial residual = 0, Final residual = 0, No Iterations 0
rho max/min : 3.78252 / 0.0158869
time step continuity errors : sum local = 1.84124e-16, global = -3.80598e-17, cumulative = 0
max/min FaceAcCourant: 0.5702/0.0269031
max/min Maf: 10.5973/0
max/min kappa: 1/0
PIMPLE: iteration 2
Creating matrix for fvOptions
DILUPBiCGStab:  Solving for Y.Liq, Initial residual = 0, Final residual = 0, No Iterations 0
Mass fraction min/max = 0/0
DILUPBiCGStab:  Solving for h, Initial residual = 0.00761995, Final residual = 5.58197e-19, No Iterations 1
max/min T: 2.14962/0.251654
DILUPBiCGStab:  Solving for p, Initial residual = 0.00139884, Final residual = 2.15141e-19, No Iterations 1
max(mag(U)): 2
max/min p: 3.25254/0.00161456
diagonal:  Solving for rho, Initial residual = 0, Final residual = 0, No Iterations 0
rho max/min : 3.7827 / 0.0160394
time step continuity errors : sum local = 1.97724e-16, global = -4.54844e-17, cumulative = 0
max/min FaceAcCourant: 0.555266/0.0282925
max/min Maf: 9.81296/0
max/min kappa: 1/0
PIMPLE: iteration 3
Creating matrix for fvOptions
DILUPBiCGStab:  Solving for Y.Liq, Initial residual = 0, Final residual = 0, No Iterations 0
Mass fraction min/max = 0/0
DILUPBiCGStab:  Solving for h, Initial residual = 0.00388531, Final residual = 8.41917e-20, No Iterations 1
max/min T: 2.15511/0.256482
DILUPBiCGStab:  Solving for p, Initial residual = 0.00074765, Final residual = 1.75305e-19, No Iterations 1
max(mag(U)): 2
max/min p: 3.26095/0.00164663
diagonal:  Solving for rho, Initial residual = 0, Final residual = 0, No Iterations 0
rho max/min : 3.78281 / 0.0160502
time step continuity errors : sum local = 1.64244e-16, global = 3.1225e-18, cumulative = 0
max/min FaceAcCourant: 0.554223/0.0285626
max/min Maf: 9.70192/0
max/min kappa: 1/0
ExecutionTime = 0.1 s  ClockTime = 0 s

Mean and max Characteristic Courant Numbers = 0.300057 0.554223
Courant Number max: 0.301463
deltaT = 0.00150732
Time = 0.0158488

diagonal:  Solving for rho, Initial residual = 0, Final residual = 0, No Iterations 0
rho max/min : 4.06715 / 0.00715479
PIMPLE: iteration 1
Creating matrix for fvOptions
DILUPBiCGStab:  Solving for Y.Liq, Initial residual = 0, Final residual = 0, No Iterations 0
Mass fraction min/max = 0/0
DILUPBiCGStab:  Solving for h, Initial residual = 0.0499767, Final residual = 5.90761e-18, No Iterations 1
max/min T: 2.27219/0.199064
DILUPBiCGStab:  Solving for p, Initial residual = 0.0228385, Final residual = 9.07057e-19, No Iterations 1
max(mag(U)): 2
max/min p: 3.69461/0.000817395
diagonal:  Solving for rho, Initial residual = 0, Final residual = 0, No Iterations 0
rho max/min : 4.06503 / 0.0102655
time step continuity errors : sum local = 1.9101e-16, global = -5.16427e-17, cumulative = 0
max/min FaceAcCourant: 0.563509/0.0251631
max/min Maf: 11.1971/0
max/min kappa: 1/0
PIMPLE: iteration 2
Creating matrix for fvOptions
DILUPBiCGStab:  Solving for Y.Liq, Initial residual = 0, Final residual = 0, No Iterations 0
Mass fraction min/max = 0/0
DILUPBiCGStab:  Solving for h, Initial residual = 0.00657788, Final residual = 4.62082e-19, No Iterations 1
max/min T: 2.28429/0.219578
DILUPBiCGStab:  Solving for p, Initial residual = 0.00117759, Final residual = 2.16032e-19, No Iterations 1
max(mag(U)): 2
max/min p: 3.71441/0.000911489
diagonal:  Solving for rho, Initial residual = 0, Final residual = 0, No Iterations 0
rho max/min : 4.06517 / 0.0103777
time step continuity errors : sum local = 1.69934e-16, global = -6.1097e-17, cumulative = 0
max/min FaceAcCourant: 0.546597/0.0264279
max/min Maf: 10.3413/0
max/min kappa: 1/0
PIMPLE: iteration 3
Creating matrix for fvOptions
DILUPBiCGStab:  Solving for Y.Liq, Initial residual = 0, Final residual = 0, No Iterations 0
Mass fraction min/max = 0/0
DILUPBiCGStab:  Solving for h, Initial residual = 0.0030464, Final residual = 1.05543e-19, No Iterations 1
max/min T: 2.2892/0.223767
DILUPBiCGStab:  Solving for p, Initial residual = 0.000613916, Final residual = 6.51477e-20, No Iterations 1
max(mag(U)): 2
max/min p: 3.72254/0.00092965
diagonal:  Solving for rho, Initial residual = 0, Final residual = 0, No Iterations 0
rho max/min : 4.06532 / 0.0103864
time step continuity errors : sum local = 1.79076e-16, global = -3.40873e-17, cumulative = 0
max/min FaceAcCourant: 0.545309/0.0266788
max/min Maf: 10.2199/0
max/min kappa: 1/0
ExecutionTime = 0.1 s  ClockTime = 0 s

Mean and max Characteristic Courant Numbers = 0.299087 0.545309
Courant Number max: 0.301463
deltaT = 0.00150732
Time = 0.0173561

diagonal:  Solving for rho, Initial residual = 0, Final residual = 0, No Iterations 0
rho max/min : 4.34782 / 0.0047226
PIMPLE: iteration 1
Creating matrix for fvOptions
DILUPBiCGStab:  Solving for Y.Liq, Initial residual = 0, Final residual = 0, No Iterations 0
Mass fraction min/max = 0/0
DILUPBiCGStab:  Solving for h, Initial residual = 0.0457936, Final residual = 8.07645e-18, No Iterations 1
max/min T: 2.40801/0.174469
DILUPBiCGStab:  Solving for p, Initial residual = 0.0195316, Final residual = 2.65365e-18, No Iterations 1
max(mag(U)): 2
max/min p: 4.18561/0.000465956
diagonal:  Solving for rho, Initial residual = 0, Final residual = 0, No Iterations 0
rho max/min : 4.34551 / 0.00667678
time step continuity errors : sum local = 2.00152e-16, global = -3.13985e-17, cumulative = 0
max/min FaceAcCourant: 0.555598/0.0235574
max/min Maf: 11.7924/0
max/min kappa: 1/0
PIMPLE: iteration 2
Creating matrix for fvOptions
DILUPBiCGStab:  Solving for Y.Liq, Initial residual = 0, Final residual = 0, No Iterations 0
Mass fraction min/max = 0/0
DILUPBiCGStab:  Solving for h, Initial residual = 0.00523197, Final residual = 6.81441e-19, No Iterations 1
max/min T: 2.41832/0.191878
DILUPBiCGStab:  Solving for p, Initial residual = 0.000919241, Final residual = 2.21628e-19, No Iterations 1
max(mag(U)): 2
max/min p: 4.20366/0.000518836
diagonal:  Solving for rho, Initial residual = 0, Final residual = 0, No Iterations 0
rho max/min : 4.34564 / 0.00675999
time step continuity errors : sum local = 1.44086e-16, global = -1.53003e-17, cumulative = 0
max/min FaceAcCourant: 0.53645/0.0247048
max/min Maf: 10.8572/0
max/min kappa: 1/0
PIMPLE: iteration 3
Creating matrix for fvOptions
DILUPBiCGStab:  Solving for Y.Liq, Initial residual = 0, Final residual = 0, No Iterations 0
Mass fraction min/max = 0/0
DILUPBiCGStab:  Solving for h, Initial residual = 0.00258106, Final residual = 1.03075e-19, No Iterations 1
max/min T: 2.4226/0.195511
DILUPBiCGStab:  Solving for p, Initial residual = 0.000518106, Final residual = 4.31788e-20, No Iterations 1
max(mag(U)): 2
max/min p: 4.21128/0.000529173
diagonal:  Solving for rho, Initial residual = 0, Final residual = 0, No Iterations 0
rho max/min : 4.34583 / 0.00676652
time step continuity errors : sum local = 1.59499e-16, global = -3.15459e-17, cumulative = 0
max/min FaceAcCourant: 0.534966/0.0249376
max/min Maf: 10.7261/0
max/min kappa: 1/0
ExecutionTime = 0.11 s  ClockTime = 0 s

Mean and max Characteristic Courant Numbers = 0.298072 0.534966
Courant Number max: 0.301463
deltaT = 0.00150732
Time = 0.0188634

diagonal:  Solving for rho, Initial residual = 0, Final residual = 0, No Iterations 0
rho max/min : 4.62635 / 0.00314666
PIMPLE: iteration 1
Creating matrix for fvOptions
DILUPBiCGStab:  Solving for Y.Liq, Initial residual = 0, Final residual = 0, No Iterations 0
Mass fraction min/max = 0/0
DILUPBiCGStab:  Solving for h, Initial residual = 0.0419788, Final residual = 4.28112e-18, No Iterations 1
max/min T: 2.54177/0.153248
DILUPBiCGStab:  Solving for p, Initial residual = 0.0168114, Final residual = 1.8551e-18, No Iterations 1
max(mag(U)): 2
max/min p: 4.70107/0.000268265
diagonal:  Solving for rho, Initial residual = 0, Final residual = 0, No Iterations 0
rho max/min : 4.62381 / 0.00437632
time step continuity errors : sum local = 1.94775e-16, global = -7.14706e-18, cumulative = 0
max/min FaceAcCourant: 0.546169/0.0220784
max/min Maf: 12.3689/0
max/min kappa: 1/0
PIMPLE: iteration 2
Creating matrix for fvOptions
DILUPBiCGStab:  Solving for Y.Liq, Initial residual = 0, Final residual = 0, No Iterations 0
Mass fraction min/max = 0/0
DILUPBiCGStab:  Solving for h, Initial residual = 0.00406034, Final residual = 5.33752e-19, No Iterations 1
max/min T: 2.55011/0.167973
DILUPBiCGStab:  Solving for p, Initial residual = 0.000642811, Final residual = 2.75008e-20, No Iterations 1
max(mag(U)): 2
max/min p: 4.71666/0.000298174
diagonal:  Solving for rho, Initial residual = 0, Final residual = 0, No Iterations 0
rho max/min : 4.62397 / 0.00443783
time step continuity errors : sum local = 1.92372e-16, global = -6.67001e-18, cumulative = 0
max/min FaceAcCourant: 0.524738/0.0231147
max/min Maf: 11.3507/0
max/min kappa: 1/0
PIMPLE: iteration 3
Creating matrix for fvOptions
DILUPBiCGStab:  Solving for Y.Liq, Initial residual = 0, Final residual = 0, No Iterations 0
Mass fraction min/max = 0/0
DILUPBiCGStab:  Solving for h, Initial residual = 0.00202915, Final residual = 4.22439e-19, No Iterations 1
max/min T: 2.55369/0.171128
DILUPBiCGStab:  Solving for p, Initial residual = 0.000348617, Final residual = 5.46478e-20, No Iterations 1
max(mag(U)): 2
max/min p: 4.72353/0.000304125
diagonal:  Solving for rho, Initial residual = 0, Final residual = 0, No Iterations 0
rho max/min : 4.62422 / 0.00444295
time step continuity errors : sum local = 1.81955e-16, global = 2.67841e-17, cumulative = 0
max/min FaceAcCourant: 0.52298/0.0233307
max/min Maf: 11.2079/0
max/min kappa: 1/0
ExecutionTime = 0.11 s  ClockTime = 0 s

Mean and max Characteristic Courant Numbers = 0.296888 0.52298
Courant Number max: 0.301463
deltaT = 0.00150732
Time = 0.0203707

diagonal:  Solving for rho, Initial residual = 0, Final residual = 0, No Iterations 0
rho max/min : 4.9026 / 0.00211938
PIMPLE: iteration 1
Creating matrix for fvOptions
DILUPBiCGStab:  Solving for Y.Liq, Initial residual = 0, Final residual = 0, No Iterations 0
Mass fraction min/max = 0/0
DILUPBiCGStab:  Solving for h, Initial residual = 0.0382256, Final residual = 3.96163e-18, No Iterations 1
max/min T: 2.67167/0.134958
DILUPBiCGStab:  Solving for p, Initial residual = 0.0145392, Final residual = 1.94473e-18, No Iterations 1
max(mag(U)): 2
max/min p: 5.23623/0.000156255
diagonal:  Solving for rho, Initial residual = 0, Final residual = 0, No Iterations 0
rho max/min : 4.89978 / 0.00289451
time step continuity errors : sum local = 1.85507e-16, global = -4.09785e-17, cumulative = 0
max/min FaceAcCourant: 0.534957/0.0207189
max/min Maf: 12.9099/0
max/min kappa: 1/0
PIMPLE: iteration 2
Creating matrix for fvOptions
DILUPBiCGStab:  Solving for Y.Liq, Initial residual = 0, Final residual = 0, No Iterations 0
Mass fraction min/max = 0/0
DILUPBiCGStab:  Solving for h, Initial residual = 0.00287922, Final residual = 2.03471e-19, No Iterations 1
max/min T: 2.67785/0.147355
DILUPBiCGStab:  Solving for p, Initial residual = 0.00135824, Final residual = 6.9791e-20, No Iterations 1
max(mag(U)): 2
max/min p: 5.21973/0.000173289
diagonal:  Solving for rho, Initial residual = 0, Final residual = 0, No Iterations 0
rho max/min : 4.87305 / 0.00294
time step continuity errors : sum local = 1.56901e-16, global = -6.46618e-18, cumulative = 0
max/min FaceAcCourant: 0.511208/0.0216497
max/min Maf: 11.8064/0
max/min kappa: 1/0
PIMPLE: iteration 3
Creating matrix for fvOptions
DILUPBiCGStab:  Solving for Y.Liq, Initial residual = 0, Final residual = 0, No Iterations 0
Mass fraction min/max = 0/0
DILUPBiCGStab:  Solving for h, Initial residual = 0.0107394, Final residual = 1.80678e-18, No Iterations 1
max/min T: 2.66656/0.150094
DILUPBiCGStab:  Solving for p, Initial residual = 0.00277458, Final residual = 1.8454e-19, No Iterations 1
max(mag(U)): 2
max/min p: 5.18781/0.00017675
diagonal:  Solving for rho, Initial residual = 0, Final residual = 0, No Iterations 0
rho max/min : 4.86377 / 0.00294399
time step continuity errors : sum local = 1.92424e-16, global = -2.43642e-17, cumulative = 0
max/min FaceAcCourant: 0.509162/0.02185
max/min Maf: 11.6513/0
max/min kappa: 1/0
ExecutionTime = 0.12 s  ClockTime = 0 s

Mean and max Characteristic Courant Numbers = 0.295478 0.509162
Courant Number max: 0.301463
deltaT = 0.00150732
Time = 0.0218781

diagonal:  Solving for rho, Initial residual = 0, Final residual = 0, No Iterations 0
rho max/min : 5.10332 / 0.00144502
PIMPLE: iteration 1
Creating matrix for fvOptions
DILUPBiCGStab:  Solving for Y.Liq, Initial residual = 0, Final residual = 0, No Iterations 0
Mass fraction min/max = 0/0
DILUPBiCGStab:  Solving for h, Initial residual = 0.036867, Final residual = 9.25514e-19, No Iterations 1
max/min T: 2.76963/0.119199
DILUPBiCGStab:  Solving for p, Initial residual = 0.013491, Final residual = 1.22426e-18, No Iterations 1
max(mag(U)): 2
max/min p: 5.63282/9.22434e-05
diagonal:  Solving for rho, Initial residual = 0, Final residual = 0, No Iterations 0
rho max/min : 5.08445 / 0.00193465
time step continuity errors : sum local = 3.25361e-06, global = -3.25361e-06, cumulative = 0
max/min FaceAcCourant: 0.481247/0.0179614
max/min Maf: 12.3576/0
max/min kappa: 1/0
PIMPLE: iteration 2
Creating matrix for fvOptions
DILUPBiCGStab:  Solving for Y.Liq, Initial residual = 0, Final residual = 0, No Iterations 0
Mass fraction min/max = 0/0
DILUPBiCGStab:  Solving for h, Initial residual = 0.00567868, Final residual = 9.8319e-19, No Iterations 1
max/min T: 2.76636/0.0497903
DILUPBiCGStab:  Solving for p, Initial residual = 0.00113826, Final residual = 5.83273e-20, No Iterations 1
max(mag(U)): 2
max/min p: 5.60179/4.00652e-05
diagonal:  Solving for rho, Initial residual = 0, Final residual = 0, No Iterations 0
rho max/min : 5.06242 / 0.0020117
time step continuity errors : sum local = 6.01872e-05, global = -6.01872e-05, cumulative = 0
max/min FaceAcCourant: 0.301463/0.00504206
max/min Maf: 7.37706/0
max/min kappa: 1/0
PIMPLE: iteration 3
Creating matrix for fvOptions
DILUPBiCGStab:  Solving for Y.Liq, Initial residual = 0, Final residual = 0, No Iterations 0
Mass fraction min/max = 0/0
DILUPBiCGStab:  Solving for h, Initial residual = 0.00991122, Final residual = 2.01418e-18, No Iterations 1
max/min T: 2.75702/-0.511411
[stack trace]
=============
#1  Foam::sigFpe::sigHandler(int) in ~/data/comp-oss-soft/OpenFOAM-2412/OpenFOAM-v2412/platforms/linux64GccDPInt32Opt/lib/libOpenFOAM.so
#2  ? in /lib/x86_64-linux-gnu/libc.so.6
#3  ? in /lib/x86_64-linux-gnu/libm.so.6
#4  Foam::sqrt(Foam::Field<double>&, Foam::UList<double> const&) in ~/data/comp-oss-soft/OpenFOAM-2412/OpenFOAM-v2412/platforms/linux64GccDPInt32Opt/lib/libOpenFOAM.so
#5  void Foam::sqrt<Foam::fvPatchField, Foam::volMesh>(Foam::GeometricField<double, Foam::fvPatchField, Foam::volMesh>&, Foam::GeometricField<double, Foam::fvPatchField, Foam::volMesh> const&) in ~/OpenFOAM/matvey-l-v2412/platforms/linux64GccDPInt32Opt/bin/twoPhaseMixingCentralFoam
#6  Foam::tmp<Foam::GeometricField<double, Foam::fvPatchField, Foam::volMesh> > Foam::sqrt<Foam::fvPatchField, Foam::volMesh>(Foam::tmp<Foam::GeometricField<double, Foam::fvPatchField, Foam::volMesh> > const&) in ~/OpenFOAM/matvey-l-v2412/platforms/linux64GccDPInt32Opt/bin/twoPhaseMixingCentralFoam
#7  ? in ~/OpenFOAM/matvey-l-v2412/platforms/linux64GccDPInt32Opt/bin/twoPhaseMixingCentralFoam
#8  ? in /lib/x86_64-linux-gnu/libc.so.6
#9  __libc_start_main in /lib/x86_64-linux-gnu/libc.so.6
#10  ? in ~/OpenFOAM/matvey-l-v2412/platforms/linux64GccDPInt32Opt/bin/twoPhaseMixingCentralFoam
=============
Floating point exception (core dumped)
