/*---------------------------------------------------------------------------*\
| =========                 |                                                 |
| \\      /  F ield         | OpenFOAM: The Open Source CFD Toolbox           |
|  \\    /   O peration     | Version:  2406                                  |
|   \\  /    A nd           | Website:  www.openfoam.com                      |
|    \\/     M anipulation  |                                                 |
\*---------------------------------------------------------------------------*/
Build  : _9bfe8264-20241212 OPENFOAM=2406 patch=241212 version=2406
Arch   : "LSB;label=32;scalar=64"
Exec   : QGDFoam
Date   : Jan 09 2025
Time   : 11:49:14
Host   : fv-az1344-607
PID    : 9045
I/O    : uncollated
Case   : /home/runner/work/VnV/VnV/SodProblem/QGDFoam/400CPL
nProcs : 1
trapFpe: Floating point exception trapping enabled (FOAM_SIGFPE).
fileModificationChecking : Monitoring run-time modified files using timeStampMaster (fileModificationSkew 5, maxFileModificationPolls 20)
allowSystemOperations : Allowing user-supplied system call operations

// * * * * * * * * * * * * * * * * * * * * * * * * * * * * * * * * * * * * * //
Create time

Create mesh for time = 0

Reading thermophysical properties

Selecting thermodynamics package 
{
    type            hePsiQGDThermo;
    mixture         pureMixture;
    transport       const;
    thermo          hConst;
    equationOfState perfectGas;
    specie          specie;
    energy          sensibleInternalEnergy;
}

Selecting QGD coeffs evaluation approach type constScPrModel1
Thermo corrected
Creating turbulence model

Selecting turbulence model type laminar
Selecting laminar stress model Stokes
Selecting finite volume surface calculus stencil type reduced
No finite volume options present

Starting time loop

Courant Number = 0.0473305
maxDeltaT1 = 0.00047538
deltaT = 0.000120019
Time = 0.000120019

diagonal:  Solving for rho, Initial residual = 0, Final residual = 0, No Iterations 0
diagonal:  Solving for rhoUx, Initial residual = 0, Final residual = 0, No Iterations 0
smoothSolver:  Solving for Ux, Initial residual = 0.00395794, Final residual = 5.20161e-18, No Iterations 1
diagonal:  Solving for rhoE, Initial residual = 0, Final residual = 0, No Iterations 0
smoothSolver:  Solving for e, Initial residual = 3.42477e-05, Final residual = 2.39119e-16, No Iterations 1
ExecutionTime = 0 s  ClockTime = 0 s

Courant Number = 0.0586033
maxDeltaT1 = 0.00047538
deltaT = 0.000144023
Time = 0.000264042

diagonal:  Solving for rho, Initial residual = 0, Final residual = 0, No Iterations 0
diagonal:  Solving for rhoUx, Initial residual = 0, Final residual = 0, No Iterations 0
smoothSolver:  Solving for Ux, Initial residual = 0.00485991, Final residual = 1.66247e-18, No Iterations 1
diagonal:  Solving for rhoE, Initial residual = 0, Final residual = 0, No Iterations 0
smoothSolver:  Solving for e, Initial residual = 3.18436e-05, Final residual = 2.40286e-16, No Iterations 1
ExecutionTime = 0.01 s  ClockTime = 0 s

Courant Number = 0.0760256
maxDeltaT1 = 0.00047538
deltaT = 0.000172828
Time = 0.00043687

diagonal:  Solving for rho, Initial residual = 0, Final residual = 0, No Iterations 0
diagonal:  Solving for rhoUx, Initial residual = 0, Final residual = 0, No Iterations 0
smoothSolver:  Solving for Ux, Initial residual = 0.00562134, Final residual = 3.50236e-18, No Iterations 1
diagonal:  Solving for rhoE, Initial residual = 0, Final residual = 0, No Iterations 0
smoothSolver:  Solving for e, Initial residual = 2.95883e-05, Final residual = 2.44975e-16, No Iterations 1
ExecutionTime = 0.01 s  ClockTime = 0 s

Courant Number = 0.09786
maxDeltaT1 = 0.00047538
deltaT = 0.000207451
Time = 0.000644321

diagonal:  Solving for rho, Initial residual = 0, Final residual = 0, No Iterations 0
diagonal:  Solving for rhoUx, Initial residual = 0, Final residual = 0, No Iterations 0
smoothSolver:  Solving for Ux, Initial residual = 0.00629873, Final residual = 6.12868e-18, No Iterations 1
diagonal:  Solving for rhoE, Initial residual = 0, Final residual = 0, No Iterations 0
smoothSolver:  Solving for e, Initial residual = 2.79642e-05, Final residual = 2.83556e-16, No Iterations 1
ExecutionTime = 0.01 s  ClockTime = 0 s

Courant Number = 0.124969
maxDeltaT1 = 0.00047538
deltaT = 0.000248858
Time = 0.000893179

diagonal:  Solving for rho, Initial residual = 0, Final residual = 0, No Iterations 0
diagonal:  Solving for rhoUx, Initial residual = 0, Final residual = 0, No Iterations 0
smoothSolver:  Solving for Ux, Initial residual = 0.00685912, Final residual = 1.42978e-17, No Iterations 1
diagonal:  Solving for rhoE, Initial residual = 0, Final residual = 0, No Iterations 0
smoothSolver:  Solving for e, Initial residual = 2.76644e-05, Final residual = 2.69597e-16, No Iterations 1
ExecutionTime = 0.01 s  ClockTime = 0 s

Courant Number = 0.158107
maxDeltaT1 = 0.00047538
deltaT = 0.000296203
Time = 0.00118938

diagonal:  Solving for rho, Initial residual = 0, Final residual = 0, No Iterations 0
diagonal:  Solving for rhoUx, Initial residual = 0, Final residual = 0, No Iterations 0
smoothSolver:  Solving for Ux, Initial residual = 0.00721166, Final residual = 6.32501e-18, No Iterations 1
diagonal:  Solving for rhoE, Initial residual = 0, Final residual = 0, No Iterations 0
smoothSolver:  Solving for e, Initial residual = 4.40602e-05, Final residual = 2.79097e-16, No Iterations 1
ExecutionTime = 0.01 s  ClockTime = 0 s

Courant Number = 0.200037
maxDeltaT1 = 0.00047538
deltaT = 0.000340836
Time = 0.00153022

diagonal:  Solving for rho, Initial residual = 0, Final residual = 0, No Iterations 0
diagonal:  Solving for rhoUx, Initial residual = 0, Final residual = 0, No Iterations 0
smoothSolver:  Solving for Ux, Initial residual = 0.00712912, Final residual = 2.58588e-17, No Iterations 1
diagonal:  Solving for rhoE, Initial residual = 0, Final residual = 0, No Iterations 0
smoothSolver:  Solving for e, Initial residual = 7.53517e-05, Final residual = 2.63266e-16, No Iterations 1
ExecutionTime = 0.01 s  ClockTime = 0 s

Courant Number = 0.246886
maxDeltaT1 = 0.00047538
deltaT = 0.000382261
Time = 0.00191248

diagonal:  Solving for rho, Initial residual = 0, Final residual = 0, No Iterations 0
diagonal:  Solving for rhoUx, Initial residual = 0, Final residual = 0, No Iterations 0
smoothSolver:  Solving for Ux, Initial residual = 0.00671026, Final residual = 7.32204e-18, No Iterations 1
diagonal:  Solving for rhoE, Initial residual = 0, Final residual = 0, No Iterations 0
smoothSolver:  Solving for e, Initial residual = 0.000112485, Final residual = 2.61418e-16, No Iterations 1
ExecutionTime = 0.01 s  ClockTime = 0 s

Courant Number = 0.293355
maxDeltaT1 = 0.00047538
deltaT = 0.000390689
Time = 0.00230317

diagonal:  Solving for rho, Initial residual = 0, Final residual = 0, No Iterations 0
diagonal:  Solving for rhoUx, Initial residual = 0, Final residual = 0, No Iterations 0
smoothSolver:  Solving for Ux, Initial residual = 0.00570231, Final residual = 2.31291e-17, No Iterations 1
diagonal:  Solving for rhoE, Initial residual = 0, Final residual = 0, No Iterations 0
smoothSolver:  Solving for e, Initial residual = 0.000137058, Final residual = 2.84415e-16, No Iterations 1
ExecutionTime = 0.01 s  ClockTime = 0 s

Courant Number = 0.311942
maxDeltaT1 = 0.00047538
deltaT = 0.000375868
Time = 0.00267904

diagonal:  Solving for rho, Initial residual = 0, Final residual = 0, No Iterations 0
diagonal:  Solving for rhoUx, Initial residual = 0, Final residual = 0, No Iterations 0
smoothSolver:  Solving for Ux, Initial residual = 0.0045814, Final residual = 2.55602e-17, No Iterations 1
diagonal:  Solving for rhoE, Initial residual = 0, Final residual = 0, No Iterations 0
smoothSolver:  Solving for e, Initial residual = 0.000145463, Final residual = 2.92699e-16, No Iterations 1
ExecutionTime = 0.01 s  ClockTime = 0 s

Courant Number = 0.307208
maxDeltaT1 = 0.00047538
deltaT = 0.000366945
Time = 0.00304598

diagonal:  Solving for rho, Initial residual = 0, Final residual = 0, No Iterations 0
diagonal:  Solving for rhoUx, Initial residual = 0, Final residual = 0, No Iterations 0
smoothSolver:  Solving for Ux, Initial residual = 0.00376175, Final residual = 8.5871e-18, No Iterations 1
diagonal:  Solving for rhoE, Initial residual = 0, Final residual = 0, No Iterations 0
smoothSolver:  Solving for e, Initial residual = 0.000156153, Final residual = 3.16908e-16, No Iterations 1
ExecutionTime = 0.01 s  ClockTime = 0 s

Courant Number = 0.30376
maxDeltaT1 = 0.00047538
deltaT = 0.000362634
Time = 0.00340862

diagonal:  Solving for rho, Initial residual = 0, Final residual = 0, No Iterations 0
diagonal:  Solving for rhoUx, Initial residual = 0, Final residual = 0, No Iterations 0
smoothSolver:  Solving for Ux, Initial residual = 0.00316068, Final residual = 9.7326e-18, No Iterations 1
diagonal:  Solving for rhoE, Initial residual = 0, Final residual = 0, No Iterations 0
smoothSolver:  Solving for e, Initial residual = 0.000161475, Final residual = 3.04595e-16, No Iterations 1
ExecutionTime = 0.01 s  ClockTime = 0 s

Courant Number = 0.301988
maxDeltaT1 = 0.00047538
deltaT = 0.000359987
Time = 0.0037686

diagonal:  Solving for rho, Initial residual = 0, Final residual = 0, No Iterations 0
diagonal:  Solving for rhoUx, Initial residual = 0, Final residual = 0, No Iterations 0
smoothSolver:  Solving for Ux, Initial residual = 0.00274822, Final residual = 8.06164e-18, No Iterations 1
diagonal:  Solving for rhoE, Initial residual = 0, Final residual = 0, No Iterations 0
smoothSolver:  Solving for e, Initial residual = 0.000160994, Final residual = 3.06823e-16, No Iterations 1
ExecutionTime = 0.01 s  ClockTime = 0 s

Courant Number = 0.300313
maxDeltaT1 = 0.00047538
deltaT = 0.000359462
Time = 0.00412806

diagonal:  Solving for rho, Initial residual = 0, Final residual = 0, No Iterations 0
diagonal:  Solving for rhoUx, Initial residual = 0, Final residual = 0, No Iterations 0
smoothSolver:  Solving for Ux, Initial residual = 0.00244047, Final residual = 1.03117e-17, No Iterations 1
diagonal:  Solving for rhoE, Initial residual = 0, Final residual = 0, No Iterations 0
smoothSolver:  Solving for e, Initial residual = 0.000157557, Final residual = 3.00715e-16, No Iterations 1
ExecutionTime = 0.01 s  ClockTime = 0 s

Courant Number = 0.299666
maxDeltaT1 = 0.00047538
deltaT = 0.000359988
Time = 0.00448805

diagonal:  Solving for rho, Initial residual = 0, Final residual = 0, No Iterations 0
diagonal:  Solving for rhoUx, Initial residual = 0, Final residual = 0, No Iterations 0
smoothSolver:  Solving for Ux, Initial residual = 0.00217479, Final residual = 1.19752e-17, No Iterations 1
diagonal:  Solving for rhoE, Initial residual = 0, Final residual = 0, No Iterations 0
smoothSolver:  Solving for e, Initial residual = 0.000157285, Final residual = 2.66569e-16, No Iterations 1
ExecutionTime = 0.01 s  ClockTime = 0 s

Courant Number = 0.299489
maxDeltaT1 = 0.000472722
deltaT = 0.000360517
Time = 0.00484857

diagonal:  Solving for rho, Initial residual = 0, Final residual = 0, No Iterations 0
diagonal:  Solving for rhoUx, Initial residual = 0, Final residual = 0, No Iterations 0
smoothSolver:  Solving for Ux, Initial residual = 0.00194171, Final residual = 1.70675e-17, No Iterations 1
diagonal:  Solving for rhoE, Initial residual = 0, Final residual = 0, No Iterations 0
smoothSolver:  Solving for e, Initial residual = 0.000154349, Final residual = 2.93174e-16, No Iterations 1
ExecutionTime = 0.02 s  ClockTime = 0 s

Courant Number = 0.299107
maxDeltaT1 = 0.000470186
deltaT = 0.00036158
Time = 0.00521015

diagonal:  Solving for rho, Initial residual = 0, Final residual = 0, No Iterations 0
diagonal:  Solving for rhoUx, Initial residual = 0, Final residual = 0, No Iterations 0
smoothSolver:  Solving for Ux, Initial residual = 0.00177178, Final residual = 1.06568e-17, No Iterations 1
diagonal:  Solving for rhoE, Initial residual = 0, Final residual = 0, No Iterations 0
smoothSolver:  Solving for e, Initial residual = 0.000148942, Final residual = 2.65511e-16, No Iterations 1
ExecutionTime = 0.02 s  ClockTime = 0 s

Courant Number = 0.299078
maxDeltaT1 = 0.000469206
deltaT = 0.000362652
Time = 0.0055728

diagonal:  Solving for rho, Initial residual = 0, Final residual = 0, No Iterations 0
diagonal:  Solving for rhoUx, Initial residual = 0, Final residual = 0, No Iterations 0
smoothSolver:  Solving for Ux, Initial residual = 0.00160929, Final residual = 1.09389e-17, No Iterations 1
diagonal:  Solving for rhoE, Initial residual = 0, Final residual = 0, No Iterations 0
smoothSolver:  Solving for e, Initial residual = 0.000141918, Final residual = 2.89097e-16, No Iterations 1
ExecutionTime = 0.02 s  ClockTime = 0 s

Courant Number = 0.299027
maxDeltaT1 = 0.000469565
deltaT = 0.000363731
Time = 0.00593653

diagonal:  Solving for rho, Initial residual = 0, Final residual = 0, No Iterations 0
diagonal:  Solving for rhoUx, Initial residual = 0, Final residual = 0, No Iterations 0
smoothSolver:  Solving for Ux, Initial residual = 0.00145488, Final residual = 8.55234e-18, No Iterations 1
diagonal:  Solving for rhoE, Initial residual = 0, Final residual = 0, No Iterations 0
smoothSolver:  Solving for e, Initial residual = 0.000139656, Final residual = 2.903e-16, No Iterations 1
ExecutionTime = 0.02 s  ClockTime = 0 s

Courant Number = 0.298992
maxDeltaT1 = 0.000468671
deltaT = 0.000364818
Time = 0.00630135

diagonal:  Solving for rho, Initial residual = 0, Final residual = 0, No Iterations 0
diagonal:  Solving for rhoUx, Initial residual = 0, Final residual = 0, No Iterations 0
smoothSolver:  Solving for Ux, Initial residual = 0.00132999, Final residual = 1.70482e-17, No Iterations 1
diagonal:  Solving for rhoE, Initial residual = 0, Final residual = 0, No Iterations 0
smoothSolver:  Solving for e, Initial residual = 0.000139115, Final residual = 2.86489e-16, No Iterations 1
ExecutionTime = 0.02 s  ClockTime = 0 s

Courant Number = 0.299492
maxDeltaT1 = 0.000465742
deltaT = 0.000365365
Time = 0.00666672

diagonal:  Solving for rho, Initial residual = 0, Final residual = 0, No Iterations 0
diagonal:  Solving for rhoUx, Initial residual = 0, Final residual = 0, No Iterations 0
smoothSolver:  Solving for Ux, Initial residual = 0.00122247, Final residual = 1.01473e-17, No Iterations 1
diagonal:  Solving for rhoE, Initial residual = 0, Final residual = 0, No Iterations 0
smoothSolver:  Solving for e, Initial residual = 0.000135883, Final residual = 2.80283e-16, No Iterations 1
ExecutionTime = 0.02 s  ClockTime = 0 s

Courant Number = 0.301222
maxDeltaT1 = 0.000464137
deltaT = 0.000363727
Time = 0.00703044

diagonal:  Solving for rho, Initial residual = 0, Final residual = 0, No Iterations 0
diagonal:  Solving for rhoUx, Initial residual = 0, Final residual = 0, No Iterations 0
smoothSolver:  Solving for Ux, Initial residual = 0.00111108, Final residual = 9.52785e-18, No Iterations 1
diagonal:  Solving for rhoE, Initial residual = 0, Final residual = 0, No Iterations 0
smoothSolver:  Solving for e, Initial residual = 0.00013019, Final residual = 2.78268e-16, No Iterations 1
ExecutionTime = 0.02 s  ClockTime = 0 s

Courant Number = 0.300401
maxDeltaT1 = 0.000463699
deltaT = 0.000363183
Time = 0.00739363

diagonal:  Solving for rho, Initial residual = 0, Final residual = 0, No Iterations 0
diagonal:  Solving for rhoUx, Initial residual = 0, Final residual = 0, No Iterations 0
smoothSolver:  Solving for Ux, Initial residual = 0.00100848, Final residual = 1.08402e-17, No Iterations 1
diagonal:  Solving for rhoE, Initial residual = 0, Final residual = 0, No Iterations 0
smoothSolver:  Solving for e, Initial residual = 0.000128042, Final residual = 2.64671e-16, No Iterations 1
ExecutionTime = 0.02 s  ClockTime = 0 s

Courant Number = 0.299966
maxDeltaT1 = 0.000464228
deltaT = 0.000363183
Time = 0.00775681

diagonal:  Solving for rho, Initial residual = 0, Final residual = 0, No Iterations 0
diagonal:  Solving for rhoUx, Initial residual = 0, Final residual = 0, No Iterations 0
smoothSolver:  Solving for Ux, Initial residual = 0.000935735, Final residual = 1.52804e-17, No Iterations 1
diagonal:  Solving for rhoE, Initial residual = 0, Final residual = 0, No Iterations 0
smoothSolver:  Solving for e, Initial residual = 0.000124606, Final residual = 2.64459e-16, No Iterations 1
ExecutionTime = 0.02 s  ClockTime = 0 s

Courant Number = 0.299732
maxDeltaT1 = 0.000463055
deltaT = 0.000363729
Time = 0.00812054

diagonal:  Solving for rho, Initial residual = 0, Final residual = 0, No Iterations 0
diagonal:  Solving for rhoUx, Initial residual = 0, Final residual = 0, No Iterations 0
smoothSolver:  Solving for Ux, Initial residual = 0.000867482, Final residual = 1.2925e-17, No Iterations 1
diagonal:  Solving for rhoE, Initial residual = 0, Final residual = 0, No Iterations 0
smoothSolver:  Solving for e, Initial residual = 0.000121602, Final residual = 2.69684e-16, No Iterations 1
ExecutionTime = 0.02 s  ClockTime = 0 s

Courant Number = 0.301819
maxDeltaT1 = 0.000461057
deltaT = 0.000361554
Time = 0.00848209

diagonal:  Solving for rho, Initial residual = 0, Final residual = 0, No Iterations 0
diagonal:  Solving for rhoUx, Initial residual = 0, Final residual = 0, No Iterations 0
smoothSolver:  Solving for Ux, Initial residual = 0.000797726, Final residual = 1.25259e-17, No Iterations 1
diagonal:  Solving for rhoE, Initial residual = 0, Final residual = 0, No Iterations 0
smoothSolver:  Solving for e, Initial residual = 0.000117887, Final residual = 2.97939e-16, No Iterations 1
ExecutionTime = 0.02 s  ClockTime = 0 s

Courant Number = 0.300931
maxDeltaT1 = 0.000460058
deltaT = 0.000360474
Time = 0.00884257

diagonal:  Solving for rho, Initial residual = 0, Final residual = 0, No Iterations 0
diagonal:  Solving for rhoUx, Initial residual = 0, Final residual = 0, No Iterations 0
smoothSolver:  Solving for Ux, Initial residual = 0.000735592, Final residual = 1.42556e-17, No Iterations 1
diagonal:  Solving for rhoE, Initial residual = 0, Final residual = 0, No Iterations 0
smoothSolver:  Solving for e, Initial residual = 0.000117031, Final residual = 2.83367e-16, No Iterations 1
ExecutionTime = 0.02 s  ClockTime = 0 s

Courant Number = 0.300429
maxDeltaT1 = 0.000459899
deltaT = 0.000359936
Time = 0.0092025

diagonal:  Solving for rho, Initial residual = 0, Final residual = 0, No Iterations 0
diagonal:  Solving for rhoUx, Initial residual = 0, Final residual = 0, No Iterations 0
smoothSolver:  Solving for Ux, Initial residual = 0.000691302, Final residual = 1.34859e-17, No Iterations 1
diagonal:  Solving for rhoE, Initial residual = 0, Final residual = 0, No Iterations 0
smoothSolver:  Solving for e, Initial residual = 0.00011494, Final residual = 2.61611e-16, No Iterations 1
ExecutionTime = 0.02 s  ClockTime = 0 s

Courant Number = 0.299996
maxDeltaT1 = 0.000460436
deltaT = 0.000359936
Time = 0.00956244

diagonal:  Solving for rho, Initial residual = 0, Final residual = 0, No Iterations 0
diagonal:  Solving for rhoUx, Initial residual = 0, Final residual = 0, No Iterations 0
smoothSolver:  Solving for Ux, Initial residual = 0.000646639, Final residual = 1.59005e-17, No Iterations 1
diagonal:  Solving for rhoE, Initial residual = 0, Final residual = 0, No Iterations 0
smoothSolver:  Solving for e, Initial residual = 0.000111627, Final residual = 2.55196e-16, No Iterations 1
ExecutionTime = 0.02 s  ClockTime = 0 s

Courant Number = 0.299903
maxDeltaT1 = 0.000459206
deltaT = 0.000359936
Time = 0.00992238

diagonal:  Solving for rho, Initial residual = 0, Final residual = 0, No Iterations 0
diagonal:  Solving for rhoUx, Initial residual = 0, Final residual = 0, No Iterations 0
smoothSolver:  Solving for Ux, Initial residual = 0.000601096, Final residual = 1.83583e-17, No Iterations 1
diagonal:  Solving for rhoE, Initial residual = 0, Final residual = 0, No Iterations 0
smoothSolver:  Solving for e, Initial residual = 0.000107641, Final residual = 2.71756e-16, No Iterations 1
ExecutionTime = 0.03 s  ClockTime = 0 s

Courant Number = 0.301155
maxDeltaT1 = 0.000457808
deltaT = 0.000358325
Time = 0.0102807

diagonal:  Solving for rho, Initial residual = 0, Final residual = 0, No Iterations 0
diagonal:  Solving for rhoUx, Initial residual = 0, Final residual = 0, No Iterations 0
smoothSolver:  Solving for Ux, Initial residual = 0.000560206, Final residual = 1.5198e-17, No Iterations 1
diagonal:  Solving for rhoE, Initial residual = 0, Final residual = 0, No Iterations 0
smoothSolver:  Solving for e, Initial residual = 0.00010583, Final residual = 2.69012e-16, No Iterations 1
ExecutionTime = 0.03 s  ClockTime = 0 s

Courant Number = 0.300545
maxDeltaT1 = 0.000457147
deltaT = 0.00035779
Time = 0.0106385

diagonal:  Solving for rho, Initial residual = 0, Final residual = 0, No Iterations 0
diagonal:  Solving for rhoUx, Initial residual = 0, Final residual = 0, No Iterations 0
smoothSolver:  Solving for Ux, Initial residual = 0.000529497, Final residual = 1.69974e-17, No Iterations 1
diagonal:  Solving for rhoE, Initial residual = 0, Final residual = 0, No Iterations 0
smoothSolver:  Solving for e, Initial residual = 0.000104357, Final residual = 2.91351e-16, No Iterations 1
ExecutionTime = 0.03 s  ClockTime = 0 s

Courant Number = 0.300445
maxDeltaT1 = 0.000457102
deltaT = 0.000357256
Time = 0.0109957

diagonal:  Solving for rho, Initial residual = 0, Final residual = 0, No Iterations 0
diagonal:  Solving for rhoUx, Initial residual = 0, Final residual = 0, No Iterations 0
smoothSolver:  Solving for Ux, Initial residual = 0.00049694, Final residual = 1.67667e-17, No Iterations 1
diagonal:  Solving for rhoE, Initial residual = 0, Final residual = 0, No Iterations 0
smoothSolver:  Solving for e, Initial residual = 0.000102729, Final residual = 2.82402e-16, No Iterations 1
ExecutionTime = 0.03 s  ClockTime = 0 s

Courant Number = 0.300043
maxDeltaT1 = 0.000457572
deltaT = 0.000357256
Time = 0.011353

diagonal:  Solving for rho, Initial residual = 0, Final residual = 0, No Iterations 0
diagonal:  Solving for rhoUx, Initial residual = 0, Final residual = 0, No Iterations 0
smoothSolver:  Solving for Ux, Initial residual = 0.000463933, Final residual = 1.21638e-17, No Iterations 1
diagonal:  Solving for rhoE, Initial residual = 0, Final residual = 0, No Iterations 0
smoothSolver:  Solving for e, Initial residual = 0.000100501, Final residual = 2.69097e-16, No Iterations 1
ExecutionTime = 0.03 s  ClockTime = 0 s

Courant Number = 0.299852
maxDeltaT1 = 0.000456464
deltaT = 0.000357256
Time = 0.0117103

diagonal:  Solving for rho, Initial residual = 0, Final residual = 0, No Iterations 0
diagonal:  Solving for rhoUx, Initial residual = 0, Final residual = 0, No Iterations 0
smoothSolver:  Solving for Ux, Initial residual = 0.000438639, Final residual = 1.74525e-17, No Iterations 1
diagonal:  Solving for rhoE, Initial residual = 0, Final residual = 0, No Iterations 0
smoothSolver:  Solving for e, Initial residual = 0.000100082, Final residual = 2.6383e-16, No Iterations 1
ExecutionTime = 0.03 s  ClockTime = 0 s

Courant Number = 0.300871
maxDeltaT1 = 0.00045544
deltaT = 0.000356188
Time = 0.0120664

diagonal:  Solving for rho, Initial residual = 0, Final residual = 0, No Iterations 0
diagonal:  Solving for rhoUx, Initial residual = 0, Final residual = 0, No Iterations 0
smoothSolver:  Solving for Ux, Initial residual = 0.000415705, Final residual = 1.44105e-17, No Iterations 1
diagonal:  Solving for rhoE, Initial residual = 0, Final residual = 0, No Iterations 0
smoothSolver:  Solving for e, Initial residual = 9.83152e-05, Final residual = 2.80419e-16, No Iterations 1
ExecutionTime = 0.03 s  ClockTime = 0 s

Courant Number = 0.300613
maxDeltaT1 = 0.000454968
deltaT = 0.000355656
Time = 0.0124221

diagonal:  Solving for rho, Initial residual = 0, Final residual = 0, No Iterations 0
diagonal:  Solving for rhoUx, Initial residual = 0, Final residual = 0, No Iterations 0
smoothSolver:  Solving for Ux, Initial residual = 0.000391769, Final residual = 1.08154e-17, No Iterations 1
diagonal:  Solving for rhoE, Initial residual = 0, Final residual = 0, No Iterations 0
smoothSolver:  Solving for e, Initial residual = 9.57029e-05, Final residual = 2.71263e-16, No Iterations 1
ExecutionTime = 0.03 s  ClockTime = 0 s

Courant Number = 0.300496
maxDeltaT1 = 0.000454959
deltaT = 0.000355124
Time = 0.0127772

diagonal:  Solving for rho, Initial residual = 0, Final residual = 0, No Iterations 0
diagonal:  Solving for rhoUx, Initial residual = 0, Final residual = 0, No Iterations 0
smoothSolver:  Solving for Ux, Initial residual = 0.000367462, Final residual = 1.8644e-17, No Iterations 1
diagonal:  Solving for rhoE, Initial residual = 0, Final residual = 0, No Iterations 0
smoothSolver:  Solving for e, Initial residual = 9.26186e-05, Final residual = 2.69141e-16, No Iterations 1
ExecutionTime = 0.03 s  ClockTime = 0 s

Courant Number = 0.300129
maxDeltaT1 = 0.000455341
deltaT = 0.000355124
Time = 0.0131323

diagonal:  Solving for rho, Initial residual = 0, Final residual = 0, No Iterations 0
diagonal:  Solving for rhoUx, Initial residual = 0, Final residual = 0, No Iterations 0
smoothSolver:  Solving for Ux, Initial residual = 0.000351815, Final residual = 1.14724e-17, No Iterations 1
diagonal:  Solving for rhoE, Initial residual = 0, Final residual = 0, No Iterations 0
smoothSolver:  Solving for e, Initial residual = 9.16921e-05, Final residual = 2.58269e-16, No Iterations 1
ExecutionTime = 0.03 s  ClockTime = 0 s

Courant Number = 0.300009
maxDeltaT1 = 0.000454426
deltaT = 0.000355124
Time = 0.0134875

diagonal:  Solving for rho, Initial residual = 0, Final residual = 0, No Iterations 0
diagonal:  Solving for rhoUx, Initial residual = 0, Final residual = 0, No Iterations 0
smoothSolver:  Solving for Ux, Initial residual = 0.000336767, Final residual = 1.74549e-17, No Iterations 1
diagonal:  Solving for rhoE, Initial residual = 0, Final residual = 0, No Iterations 0
smoothSolver:  Solving for e, Initial residual = 9.10502e-05, Final residual = 2.98897e-16, No Iterations 1
ExecutionTime = 0.03 s  ClockTime = 0 s

Courant Number = 0.300682
maxDeltaT1 = 0.000453643
deltaT = 0.000354061
Time = 0.0138415

diagonal:  Solving for rho, Initial residual = 0, Final residual = 0, No Iterations 0
diagonal:  Solving for rhoUx, Initial residual = 0, Final residual = 0, No Iterations 0
smoothSolver:  Solving for Ux, Initial residual = 0.000319049, Final residual = 1.59517e-17, No Iterations 1
diagonal:  Solving for rhoE, Initial residual = 0, Final residual = 0, No Iterations 0
smoothSolver:  Solving for e, Initial residual = 8.92103e-05, Final residual = 2.65189e-16, No Iterations 1
ExecutionTime = 0.03 s  ClockTime = 0 s

Courant Number = 0.300357
maxDeltaT1 = 0.000453279
deltaT = 0.000353531
Time = 0.0141951

diagonal:  Solving for rho, Initial residual = 0, Final residual = 0, No Iterations 0
diagonal:  Solving for rhoUx, Initial residual = 0, Final residual = 0, No Iterations 0
smoothSolver:  Solving for Ux, Initial residual = 0.000300629, Final residual = 1.59446e-17, No Iterations 1
diagonal:  Solving for rhoE, Initial residual = 0, Final residual = 0, No Iterations 0
smoothSolver:  Solving for e, Initial residual = 8.71399e-05, Final residual = 2.69455e-16, No Iterations 1
ExecutionTime = 0.03 s  ClockTime = 0 s

Courant Number = 0.300232
maxDeltaT1 = 0.00045327
deltaT = 0.000353001
Time = 0.0145481

diagonal:  Solving for rho, Initial residual = 0, Final residual = 0, No Iterations 0
diagonal:  Solving for rhoUx, Initial residual = 0, Final residual = 0, No Iterations 0
smoothSolver:  Solving for Ux, Initial residual = 0.000289511, Final residual = 1.03042e-17, No Iterations 1
diagonal:  Solving for rhoE, Initial residual = 0, Final residual = 0, No Iterations 0
smoothSolver:  Solving for e, Initial residual = 8.64616e-05, Final residual = 2.87017e-16, No Iterations 1
ExecutionTime = 0.03 s  ClockTime = 0 s

Courant Number = 0.299897
maxDeltaT1 = 0.000453564
deltaT = 0.000353001
Time = 0.0149011

diagonal:  Solving for rho, Initial residual = 0, Final residual = 0, No Iterations 0
diagonal:  Solving for rhoUx, Initial residual = 0, Final residual = 0, No Iterations 0
smoothSolver:  Solving for Ux, Initial residual = 0.000278233, Final residual = 1.66258e-17, No Iterations 1
diagonal:  Solving for rhoE, Initial residual = 0, Final residual = 0, No Iterations 0
smoothSolver:  Solving for e, Initial residual = 8.50939e-05, Final residual = 2.63664e-16, No Iterations 1
ExecutionTime = 0.03 s  ClockTime = 0 s

Courant Number = 0.299836
maxDeltaT1 = 0.000452866
deltaT = 0.000353001
Time = 0.0152541

diagonal:  Solving for rho, Initial residual = 0, Final residual = 0, No Iterations 0
diagonal:  Solving for rhoUx, Initial residual = 0, Final residual = 0, No Iterations 0
smoothSolver:  Solving for Ux, Initial residual = 0.000265159, Final residual = 1.2219e-17, No Iterations 1
diagonal:  Solving for rhoE, Initial residual = 0, Final residual = 0, No Iterations 0
smoothSolver:  Solving for e, Initial residual = 8.29438e-05, Final residual = 2.45836e-16, No Iterations 1
ExecutionTime = 0.04 s  ClockTime = 0 s

Courant Number = 0.300217
maxDeltaT1 = 0.00045224
deltaT = 0.000353001
Time = 0.0156071

diagonal:  Solving for rho, Initial residual = 0, Final residual = 0, No Iterations 0
diagonal:  Solving for rhoUx, Initial residual = 0, Final residual = 0, No Iterations 0
smoothSolver:  Solving for Ux, Initial residual = 0.000250666, Final residual = 1.25977e-17, No Iterations 1
diagonal:  Solving for rhoE, Initial residual = 0, Final residual = 0, No Iterations 0
smoothSolver:  Solving for e, Initial residual = 8.0566e-05, Final residual = 2.52755e-16, No Iterations 1
ExecutionTime = 0.04 s  ClockTime = 0 s

Courant Number = 0.300748
maxDeltaT1 = 0.000451936
deltaT = 0.000351941
Time = 0.015959

diagonal:  Solving for rho, Initial residual = 0, Final residual = 0, No Iterations 0
diagonal:  Solving for rhoUx, Initial residual = 0, Final residual = 0, No Iterations 0
smoothSolver:  Solving for Ux, Initial residual = 0.000242428, Final residual = 1.27297e-17, No Iterations 1
diagonal:  Solving for rhoE, Initial residual = 0, Final residual = 0, No Iterations 0
smoothSolver:  Solving for e, Initial residual = 8.01705e-05, Final residual = 2.90029e-16, No Iterations 1
ExecutionTime = 0.04 s  ClockTime = 0 s

Courant Number = 0.300163
maxDeltaT1 = 0.000451911
deltaT = 0.000351941
Time = 0.016311

diagonal:  Solving for rho, Initial residual = 0, Final residual = 0, No Iterations 0
diagonal:  Solving for rhoUx, Initial residual = 0, Final residual = 0, No Iterations 0
smoothSolver:  Solving for Ux, Initial residual = 0.000233878, Final residual = 1.47889e-17, No Iterations 1
diagonal:  Solving for rhoE, Initial residual = 0, Final residual = 0, No Iterations 0
smoothSolver:  Solving for e, Initial residual = 7.94829e-05, Final residual = 3.06874e-16, No Iterations 1
ExecutionTime = 0.04 s  ClockTime = 0 s

Courant Number = 0.300303
maxDeltaT1 = 0.000452128
deltaT = 0.000351412
Time = 0.0166624

diagonal:  Solving for rho, Initial residual = 0, Final residual = 0, No Iterations 0
diagonal:  Solving for rhoUx, Initial residual = 0, Final residual = 0, No Iterations 0
smoothSolver:  Solving for Ux, Initial residual = 0.000223294, Final residual = 1.26839e-17, No Iterations 1
diagonal:  Solving for rhoE, Initial residual = 0, Final residual = 0, No Iterations 0
smoothSolver:  Solving for e, Initial residual = 7.80139e-05, Final residual = 3.07439e-16, No Iterations 1
ExecutionTime = 0.04 s  ClockTime = 0 s

Courant Number = 0.29984
maxDeltaT1 = 0.000451636
deltaT = 0.000351412
Time = 0.0170138

diagonal:  Solving for rho, Initial residual = 0, Final residual = 0, No Iterations 0
diagonal:  Solving for rhoUx, Initial residual = 0, Final residual = 0, No Iterations 0
smoothSolver:  Solving for Ux, Initial residual = 0.000211769, Final residual = 1.88808e-17, No Iterations 1
diagonal:  Solving for rhoE, Initial residual = 0, Final residual = 0, No Iterations 0
smoothSolver:  Solving for e, Initial residual = 7.65147e-05, Final residual = 2.77052e-16, No Iterations 1
ExecutionTime = 0.04 s  ClockTime = 0 s

Courant Number = 0.29999
maxDeltaT1 = 0.000451115
deltaT = 0.000351412
Time = 0.0173652

diagonal:  Solving for rho, Initial residual = 0, Final residual = 0, No Iterations 0
diagonal:  Solving for rhoUx, Initial residual = 0, Final residual = 0, No Iterations 0
smoothSolver:  Solving for Ux, Initial residual = 0.000206557, Final residual = 1.60217e-17, No Iterations 1
diagonal:  Solving for rhoE, Initial residual = 0, Final residual = 0, No Iterations 0
smoothSolver:  Solving for e, Initial residual = 7.61485e-05, Final residual = 2.50621e-16, No Iterations 1
ExecutionTime = 0.04 s  ClockTime = 0 s

Courant Number = 0.300481
maxDeltaT1 = 0.000450848
deltaT = 0.000350882
Time = 0.0177161

diagonal:  Solving for rho, Initial residual = 0, Final residual = 0, No Iterations 0
diagonal:  Solving for rhoUx, Initial residual = 0, Final residual = 0, No Iterations 0
smoothSolver:  Solving for Ux, Initial residual = 0.000199387, Final residual = 1.60453e-17, No Iterations 1
diagonal:  Solving for rhoE, Initial residual = 0, Final residual = 0, No Iterations 0
smoothSolver:  Solving for e, Initial residual = 7.49498e-05, Final residual = 2.8268e-16, No Iterations 1
ExecutionTime = 0.04 s  ClockTime = 0 s

Courant Number = 0.30034
maxDeltaT1 = 0.000450803
deltaT = 0.000350353
Time = 0.0180664

diagonal:  Solving for rho, Initial residual = 0, Final residual = 0, No Iterations 0
diagonal:  Solving for rhoUx, Initial residual = 0, Final residual = 0, No Iterations 0
smoothSolver:  Solving for Ux, Initial residual = 0.000190666, Final residual = 1.58029e-17, No Iterations 1
diagonal:  Solving for rhoE, Initial residual = 0, Final residual = 0, No Iterations 0
smoothSolver:  Solving for e, Initial residual = 7.308e-05, Final residual = 2.76006e-16, No Iterations 1
ExecutionTime = 0.04 s  ClockTime = 0 s

Courant Number = 0.300046
maxDeltaT1 = 0.000450954
deltaT = 0.000350353
Time = 0.0184168

diagonal:  Solving for rho, Initial residual = 0, Final residual = 0, No Iterations 0
diagonal:  Solving for rhoUx, Initial residual = 0, Final residual = 0, No Iterations 0
smoothSolver:  Solving for Ux, Initial residual = 0.000181167, Final residual = 1.15724e-17, No Iterations 1
diagonal:  Solving for rhoE, Initial residual = 0, Final residual = 0, No Iterations 0
smoothSolver:  Solving for e, Initial residual = 7.14602e-05, Final residual = 2.91442e-16, No Iterations 1
ExecutionTime = 0.04 s  ClockTime = 0 s

Courant Number = 0.300072
maxDeltaT1 = 0.000450645
deltaT = 0.000350353
Time = 0.0187671

diagonal:  Solving for rho, Initial residual = 0, Final residual = 0, No Iterations 0
diagonal:  Solving for rhoUx, Initial residual = 0, Final residual = 0, No Iterations 0
smoothSolver:  Solving for Ux, Initial residual = 0.000177342, Final residual = 1.29171e-17, No Iterations 1
diagonal:  Solving for rhoE, Initial residual = 0, Final residual = 0, No Iterations 0
smoothSolver:  Solving for e, Initial residual = 7.16121e-05, Final residual = 2.70934e-16, No Iterations 1
ExecutionTime = 0.04 s  ClockTime = 0 s

Courant Number = 0.300045
maxDeltaT1 = 0.000450197
deltaT = 0.000350353
Time = 0.0191175

diagonal:  Solving for rho, Initial residual = 0, Final residual = 0, No Iterations 0
diagonal:  Solving for rhoUx, Initial residual = 0, Final residual = 0, No Iterations 0
smoothSolver:  Solving for Ux, Initial residual = 0.000172029, Final residual = 1.50015e-17, No Iterations 1
diagonal:  Solving for rhoE, Initial residual = 0, Final residual = 0, No Iterations 0
smoothSolver:  Solving for e, Initial residual = 7.11009e-05, Final residual = 2.55575e-16, No Iterations 1
ExecutionTime = 0.05 s  ClockTime = 0 s

Courant Number = 0.300501
maxDeltaT1 = 0.000449954
deltaT = 0.000349822
Time = 0.0194673

diagonal:  Solving for rho, Initial residual = 0, Final residual = 0, No Iterations 0
diagonal:  Solving for rhoUx, Initial residual = 0, Final residual = 0, No Iterations 0
smoothSolver:  Solving for Ux, Initial residual = 0.000165011, Final residual = 1.38888e-17, No Iterations 1
diagonal:  Solving for rhoE, Initial residual = 0, Final residual = 0, No Iterations 0
smoothSolver:  Solving for e, Initial residual = 6.98341e-05, Final residual = 2.98275e-16, No Iterations 1
ExecutionTime = 0.05 s  ClockTime = 0 s

Courant Number = 0.30035
maxDeltaT1 = 0.000449891
deltaT = 0.000349292
Time = 0.0198166

diagonal:  Solving for rho, Initial residual = 0, Final residual = 0, No Iterations 0
diagonal:  Solving for rhoUx, Initial residual = 0, Final residual = 0, No Iterations 0
smoothSolver:  Solving for Ux, Initial residual = 0.000157088, Final residual = 1.67042e-17, No Iterations 1
diagonal:  Solving for rhoE, Initial residual = 0, Final residual = 0, No Iterations 0
smoothSolver:  Solving for e, Initial residual = 6.84225e-05, Final residual = 2.92733e-16, No Iterations 1
ExecutionTime = 0.05 s  ClockTime = 0 s

Courant Number = 0.300066
maxDeltaT1 = 0.000449989
deltaT = 0.000349292
Time = 0.0201659

diagonal:  Solving for rho, Initial residual = 0, Final residual = 0, No Iterations 0
diagonal:  Solving for rhoUx, Initial residual = 0, Final residual = 0, No Iterations 0
smoothSolver:  Solving for Ux, Initial residual = 0.000154265, Final residual = 1.81271e-17, No Iterations 1
diagonal:  Solving for rhoE, Initial residual = 0, Final residual = 0, No Iterations 0
smoothSolver:  Solving for e, Initial residual = 6.8172e-05, Final residual = 2.68852e-16, No Iterations 1
ExecutionTime = 0.05 s  ClockTime = 0 s

Courant Number = 0.300122
maxDeltaT1 = 0.000449831
deltaT = 0.000349292
Time = 0.0205152

diagonal:  Solving for rho, Initial residual = 0, Final residual = 0, No Iterations 0
diagonal:  Solving for rhoUx, Initial residual = 0, Final residual = 0, No Iterations 0
smoothSolver:  Solving for Ux, Initial residual = 0.000150219, Final residual = 1.23105e-17, No Iterations 1
diagonal:  Solving for rhoE, Initial residual = 0, Final residual = 0, No Iterations 0
smoothSolver:  Solving for e, Initial residual = 6.72854e-05, Final residual = 2.66945e-16, No Iterations 1
ExecutionTime = 0.05 s  ClockTime = 0 s

Courant Number = 0.300075
maxDeltaT1 = 0.000449438
deltaT = 0.000349292
Time = 0.0208645

diagonal:  Solving for rho, Initial residual = 0, Final residual = 0, No Iterations 0
diagonal:  Solving for rhoUx, Initial residual = 0, Final residual = 0, No Iterations 0
smoothSolver:  Solving for Ux, Initial residual = 0.000144997, Final residual = 1.32718e-17, No Iterations 1
diagonal:  Solving for rhoE, Initial residual = 0, Final residual = 0, No Iterations 0
smoothSolver:  Solving for e, Initial residual = 6.5848e-05, Final residual = 2.65011e-16, No Iterations 1
ExecutionTime = 0.05 s  ClockTime = 0 s

Courant Number = 0.300384
maxDeltaT1 = 0.000449211
deltaT = 0.00034876
Time = 0.0212132

diagonal:  Solving for rho, Initial residual = 0, Final residual = 0, No Iterations 0
diagonal:  Solving for rhoUx, Initial residual = 0, Final residual = 0, No Iterations 0
smoothSolver:  Solving for Ux, Initial residual = 0.00013868, Final residual = 1.76127e-17, No Iterations 1
diagonal:  Solving for rhoE, Initial residual = 0, Final residual = 0, No Iterations 0
smoothSolver:  Solving for e, Initial residual = 6.48888e-05, Final residual = 2.65007e-16, No Iterations 1
ExecutionTime = 0.06 s  ClockTime = 0 s

Courant Number = 0.300221
maxDeltaT1 = 0.000449132
deltaT = 0.00034876
Time = 0.021562

diagonal:  Solving for rho, Initial residual = 0, Final residual = 0, No Iterations 0
diagonal:  Solving for rhoUx, Initial residual = 0, Final residual = 0, No Iterations 0
smoothSolver:  Solving for Ux, Initial residual = 0.000137087, Final residual = 1.56051e-17, No Iterations 1
diagonal:  Solving for rhoE, Initial residual = 0, Final residual = 0, No Iterations 0
smoothSolver:  Solving for e, Initial residual = 6.52324e-05, Final residual = 2.70354e-16, No Iterations 1
ExecutionTime = 0.06 s  ClockTime = 0 s

Courant Number = 0.3004
maxDeltaT1 = 0.000449188
deltaT = 0.000348229
Time = 0.0219102

diagonal:  Solving for rho, Initial residual = 0, Final residual = 0, No Iterations 0
diagonal:  Solving for rhoUx, Initial residual = 0, Final residual = 0, No Iterations 0
smoothSolver:  Solving for Ux, Initial residual = 0.000133886, Final residual = 1.74681e-17, No Iterations 1
diagonal:  Solving for rhoE, Initial residual = 0, Final residual = 0, No Iterations 0
smoothSolver:  Solving for e, Initial residual = 6.48593e-05, Final residual = 2.74739e-16, No Iterations 1
ExecutionTime = 0.06 s  ClockTime = 0 s

Courant Number = 0.300019
maxDeltaT1 = 0.000449154
deltaT = 0.000348229
Time = 0.0222585

diagonal:  Solving for rho, Initial residual = 0, Final residual = 0, No Iterations 0
diagonal:  Solving for rhoUx, Initial residual = 0, Final residual = 0, No Iterations 0
smoothSolver:  Solving for Ux, Initial residual = 0.000129592, Final residual = 1.21927e-17, No Iterations 1
diagonal:  Solving for rhoE, Initial residual = 0, Final residual = 0, No Iterations 0
smoothSolver:  Solving for e, Initial residual = 6.39925e-05, Final residual = 2.71037e-16, No Iterations 1
ExecutionTime = 0.06 s  ClockTime = 0 s

Courant Number = 0.300007
maxDeltaT1 = 0.000448804
deltaT = 0.000348229
Time = 0.0226067

diagonal:  Solving for rho, Initial residual = 0, Final residual = 0, No Iterations 0
diagonal:  Solving for rhoUx, Initial residual = 0, Final residual = 0, No Iterations 0
smoothSolver:  Solving for Ux, Initial residual = 0.000124519, Final residual = 1.32908e-17, No Iterations 1
diagonal:  Solving for rhoE, Initial residual = 0, Final residual = 0, No Iterations 0
smoothSolver:  Solving for e, Initial residual = 6.28863e-05, Final residual = 2.55789e-16, No Iterations 1
ExecutionTime = 0.06 s  ClockTime = 0 s

Courant Number = 0.300152
maxDeltaT1 = 0.00044859
deltaT = 0.000348229
Time = 0.0229549

diagonal:  Solving for rho, Initial residual = 0, Final residual = 0, No Iterations 0
diagonal:  Solving for rhoUx, Initial residual = 0, Final residual = 0, No Iterations 0
smoothSolver:  Solving for Ux, Initial residual = 0.000123716, Final residual = 1.52473e-17, No Iterations 1
diagonal:  Solving for rhoE, Initial residual = 0, Final residual = 0, No Iterations 0
smoothSolver:  Solving for e, Initial residual = 6.28594e-05, Final residual = 2.52754e-16, No Iterations 1
ExecutionTime = 0.06 s  ClockTime = 0 s

Courant Number = 0.300434
maxDeltaT1 = 0.000448499
deltaT = 0.000347695
Time = 0.0233026

diagonal:  Solving for rho, Initial residual = 0, Final residual = 0, No Iterations 0
diagonal:  Solving for rhoUx, Initial residual = 0, Final residual = 0, No Iterations 0
smoothSolver:  Solving for Ux, Initial residual = 0.000121375, Final residual = 1.66725e-17, No Iterations 1
diagonal:  Solving for rhoE, Initial residual = 0, Final residual = 0, No Iterations 0
smoothSolver:  Solving for e, Initial residual = 6.21449e-05, Final residual = 2.85466e-16, No Iterations 1
ExecutionTime = 0.06 s  ClockTime = 0 s

Courant Number = 0.300156
maxDeltaT1 = 0.000448521
deltaT = 0.000347695
Time = 0.0236503

diagonal:  Solving for rho, Initial residual = 0, Final residual = 0, No Iterations 0
diagonal:  Solving for rhoUx, Initial residual = 0, Final residual = 0, No Iterations 0
smoothSolver:  Solving for Ux, Initial residual = 0.000117984, Final residual = 1.84556e-17, No Iterations 1
diagonal:  Solving for rhoE, Initial residual = 0, Final residual = 0, No Iterations 0
smoothSolver:  Solving for e, Initial residual = 6.10925e-05, Final residual = 2.72763e-16, No Iterations 1
ExecutionTime = 0.06 s  ClockTime = 0 s

Courant Number = 0.30025
maxDeltaT1 = 0.000448586
deltaT = 0.000347162
Time = 0.0239975

diagonal:  Solving for rho, Initial residual = 0, Final residual = 0, No Iterations 0
diagonal:  Solving for rhoUx, Initial residual = 0, Final residual = 0, No Iterations 0
smoothSolver:  Solving for Ux, Initial residual = 0.000113455, Final residual = 1.7405e-17, No Iterations 1
diagonal:  Solving for rhoE, Initial residual = 0, Final residual = 0, No Iterations 0
smoothSolver:  Solving for e, Initial residual = 6.01796e-05, Final residual = 2.7944e-16, No Iterations 1
ExecutionTime = 0.06 s  ClockTime = 0 s

Courant Number = 0.299803
maxDeltaT1 = 0.000448269
deltaT = 0.000347162
Time = 0.0243446

diagonal:  Solving for rho, Initial residual = 0, Final residual = 0, No Iterations 0
diagonal:  Solving for rhoUx, Initial residual = 0, Final residual = 0, No Iterations 0
smoothSolver:  Solving for Ux, Initial residual = 0.000112861, Final residual = 1.31558e-17, No Iterations 1
diagonal:  Solving for rhoE, Initial residual = 0, Final residual = 0, No Iterations 0
smoothSolver:  Solving for e, Initial residual = 6.05219e-05, Final residual = 2.66785e-16, No Iterations 1
ExecutionTime = 0.06 s  ClockTime = 0 s

Courant Number = 0.299822
maxDeltaT1 = 0.000448066
deltaT = 0.000347162
Time = 0.0246918

diagonal:  Solving for rho, Initial residual = 0, Final residual = 0, No Iterations 0
diagonal:  Solving for rhoUx, Initial residual = 0, Final residual = 0, No Iterations 0
smoothSolver:  Solving for Ux, Initial residual = 0.000111212, Final residual = 1.3702e-17, No Iterations 1
diagonal:  Solving for rhoE, Initial residual = 0, Final residual = 0, No Iterations 0
smoothSolver:  Solving for e, Initial residual = 6.03271e-05, Final residual = 2.50408e-16, No Iterations 1
ExecutionTime = 0.06 s  ClockTime = 0 s

Courant Number = 0.300091
maxDeltaT1 = 0.000447967
deltaT = 0.000347162
Time = 0.0250389

diagonal:  Solving for rho, Initial residual = 0, Final residual = 0, No Iterations 0
diagonal:  Solving for rhoUx, Initial residual = 0, Final residual = 0, No Iterations 0
smoothSolver:  Solving for Ux, Initial residual = 0.000108387, Final residual = 1.89363e-17, No Iterations 1
diagonal:  Solving for rhoE, Initial residual = 0, Final residual = 0, No Iterations 0
smoothSolver:  Solving for e, Initial residual = 5.95728e-05, Final residual = 2.72168e-16, No Iterations 1
ExecutionTime = 0.06 s  ClockTime = 0 s

Courant Number = 0.300274
maxDeltaT1 = 0.000447963
deltaT = 0.000346627
Time = 0.0253856

diagonal:  Solving for rho, Initial residual = 0, Final residual = 0, No Iterations 0
diagonal:  Solving for rhoUx, Initial residual = 0, Final residual = 0, No Iterations 0
smoothSolver:  Solving for Ux, Initial residual = 0.000104436, Final residual = 1.70118e-17, No Iterations 1
diagonal:  Solving for rhoE, Initial residual = 0, Final residual = 0, No Iterations 0
smoothSolver:  Solving for e, Initial residual = 5.83491e-05, Final residual = 2.87472e-16, No Iterations 1
ExecutionTime = 0.06 s  ClockTime = 0 s

Courant Number = 0.299915
maxDeltaT1 = 0.000448048
deltaT = 0.000346627
Time = 0.0257322

diagonal:  Solving for rho, Initial residual = 0, Final residual = 0, No Iterations 0
diagonal:  Solving for rhoUx, Initial residual = 0, Final residual = 0, No Iterations 0
smoothSolver:  Solving for Ux, Initial residual = 0.00010381, Final residual = 1.77502e-17, No Iterations 1
diagonal:  Solving for rhoE, Initial residual = 0, Final residual = 0, No Iterations 0
smoothSolver:  Solving for e, Initial residual = 5.84351e-05, Final residual = 2.79806e-16, No Iterations 1
ExecutionTime = 0.06 s  ClockTime = 0 s

Courant Number = 0.29995
maxDeltaT1 = 0.000447816
deltaT = 0.000346627
Time = 0.0260788

diagonal:  Solving for rho, Initial residual = 0, Final residual = 0, No Iterations 0
diagonal:  Solving for rhoUx, Initial residual = 0, Final residual = 0, No Iterations 0
smoothSolver:  Solving for Ux, Initial residual = 0.000102406, Final residual = 1.62185e-17, No Iterations 1
diagonal:  Solving for rhoE, Initial residual = 0, Final residual = 0, No Iterations 0
smoothSolver:  Solving for e, Initial residual = 5.79739e-05, Final residual = 2.66949e-16, No Iterations 1
ExecutionTime = 0.06 s  ClockTime = 0 s

Courant Number = 0.29992
maxDeltaT1 = 0.000447623
deltaT = 0.000346627
Time = 0.0264255

diagonal:  Solving for rho, Initial residual = 0, Final residual = 0, No Iterations 0
diagonal:  Solving for rhoUx, Initial residual = 0, Final residual = 0, No Iterations 0
smoothSolver:  Solving for Ux, Initial residual = 9.99015e-05, Final residual = 1.66056e-17, No Iterations 1
diagonal:  Solving for rhoE, Initial residual = 0, Final residual = 0, No Iterations 0
smoothSolver:  Solving for e, Initial residual = 5.73162e-05, Final residual = 2.66546e-16, No Iterations 1
ExecutionTime = 0.07 s  ClockTime = 0 s

Courant Number = 0.300128
maxDeltaT1 = 0.000447518
deltaT = 0.000346627
Time = 0.0267721

diagonal:  Solving for rho, Initial residual = 0, Final residual = 0, No Iterations 0
diagonal:  Solving for rhoUx, Initial residual = 0, Final residual = 0, No Iterations 0
smoothSolver:  Solving for Ux, Initial residual = 9.6525e-05, Final residual = 1.44074e-17, No Iterations 1
diagonal:  Solving for rhoE, Initial residual = 0, Final residual = 0, No Iterations 0
smoothSolver:  Solving for e, Initial residual = 5.63991e-05, Final residual = 2.40363e-16, No Iterations 1
ExecutionTime = 0.07 s  ClockTime = 0 s

Courant Number = 0.300308
maxDeltaT1 = 0.000447495
deltaT = 0.00034609
Time = 0.0271182

diagonal:  Solving for rho, Initial residual = 0, Final residual = 0, No Iterations 0
diagonal:  Solving for rhoUx, Initial residual = 0, Final residual = 0, No Iterations 0
smoothSolver:  Solving for Ux, Initial residual = 9.57744e-05, Final residual = 1.59347e-17, No Iterations 1
diagonal:  Solving for rhoE, Initial residual = 0, Final residual = 0, No Iterations 0
smoothSolver:  Solving for e, Initial residual = 5.66917e-05, Final residual = 2.86759e-16, No Iterations 1
ExecutionTime = 0.07 s  ClockTime = 0 s

Courant Number = 0.299954
maxDeltaT1 = 0.000447547
deltaT = 0.00034609
Time = 0.0274643

diagonal:  Solving for rho, Initial residual = 0, Final residual = 0, No Iterations 0
diagonal:  Solving for rhoUx, Initial residual = 0, Final residual = 0, No Iterations 0
smoothSolver:  Solving for Ux, Initial residual = 9.47154e-05, Final residual = 1.70024e-17, No Iterations 1
diagonal:  Solving for rhoE, Initial residual = 0, Final residual = 0, No Iterations 0
smoothSolver:  Solving for e, Initial residual = 5.65793e-05, Final residual = 2.6604e-16, No Iterations 1
ExecutionTime = 0.07 s  ClockTime = 0 s

Courant Number = 0.300003
maxDeltaT1 = 0.000447429
deltaT = 0.00034609
Time = 0.0278104

diagonal:  Solving for rho, Initial residual = 0, Final residual = 0, No Iterations 0
diagonal:  Solving for rhoUx, Initial residual = 0, Final residual = 0, No Iterations 0
smoothSolver:  Solving for Ux, Initial residual = 9.26349e-05, Final residual = 1.36304e-17, No Iterations 1
diagonal:  Solving for rhoE, Initial residual = 0, Final residual = 0, No Iterations 0
smoothSolver:  Solving for e, Initial residual = 5.60027e-05, Final residual = 2.63555e-16, No Iterations 1
ExecutionTime = 0.07 s  ClockTime = 0 s

Courant Number = 0.299996
maxDeltaT1 = 0.000447246
deltaT = 0.00034609
Time = 0.0281564

diagonal:  Solving for rho, Initial residual = 0, Final residual = 0, No Iterations 0
diagonal:  Solving for rhoUx, Initial residual = 0, Final residual = 0, No Iterations 0
smoothSolver:  Solving for Ux, Initial residual = 8.96647e-05, Final residual = 1.26077e-17, No Iterations 1
diagonal:  Solving for rhoE, Initial residual = 0, Final residual = 0, No Iterations 0
smoothSolver:  Solving for e, Initial residual = 5.49475e-05, Final residual = 2.61763e-16, No Iterations 1
ExecutionTime = 0.07 s  ClockTime = 0 s

Courant Number = 0.300096
maxDeltaT1 = 0.000447139
deltaT = 0.00034609
Time = 0.0285025

diagonal:  Solving for rho, Initial residual = 0, Final residual = 0, No Iterations 0
diagonal:  Solving for rhoUx, Initial residual = 0, Final residual = 0, No Iterations 0
smoothSolver:  Solving for Ux, Initial residual = 8.89565e-05, Final residual = 1.71015e-17, No Iterations 1
diagonal:  Solving for rhoE, Initial residual = 0, Final residual = 0, No Iterations 0
smoothSolver:  Solving for e, Initial residual = 5.50633e-05, Final residual = 2.84212e-16, No Iterations 1
ExecutionTime = 0.07 s  ClockTime = 0 s

Courant Number = 0.300272
maxDeltaT1 = 0.0004471
deltaT = 0.00034555
Time = 0.0288481

diagonal:  Solving for rho, Initial residual = 0, Final residual = 0, No Iterations 0
diagonal:  Solving for rhoUx, Initial residual = 0, Final residual = 0, No Iterations 0
smoothSolver:  Solving for Ux, Initial residual = 8.7962e-05, Final residual = 1.69518e-17, No Iterations 1
diagonal:  Solving for rhoE, Initial residual = 0, Final residual = 0, No Iterations 0
smoothSolver:  Solving for e, Initial residual = 5.46947e-05, Final residual = 2.73178e-16, No Iterations 1
ExecutionTime = 0.07 s  ClockTime = 0 s

Courant Number = 0.299919
maxDeltaT1 = 0.000447127
deltaT = 0.00034555
Time = 0.0291936

diagonal:  Solving for rho, Initial residual = 0, Final residual = 0, No Iterations 0
diagonal:  Solving for rhoUx, Initial residual = 0, Final residual = 0, No Iterations 0
smoothSolver:  Solving for Ux, Initial residual = 8.61312e-05, Final residual = 2.00991e-17, No Iterations 1
diagonal:  Solving for rhoE, Initial residual = 0, Final residual = 0, No Iterations 0
smoothSolver:  Solving for e, Initial residual = 5.43689e-05, Final residual = 2.85675e-16, No Iterations 1
ExecutionTime = 0.07 s  ClockTime = 0 s

Courant Number = 0.299979
maxDeltaT1 = 0.000447097
deltaT = 0.00034555
Time = 0.0295392

diagonal:  Solving for rho, Initial residual = 0, Final residual = 0, No Iterations 0
diagonal:  Solving for rhoUx, Initial residual = 0, Final residual = 0, No Iterations 0
smoothSolver:  Solving for Ux, Initial residual = 8.34856e-05, Final residual = 1.72414e-17, No Iterations 1
diagonal:  Solving for rhoE, Initial residual = 0, Final residual = 0, No Iterations 0
smoothSolver:  Solving for e, Initial residual = 5.36001e-05, Final residual = 2.73462e-16, No Iterations 1
ExecutionTime = 0.07 s  ClockTime = 0 s

Courant Number = 0.299989
maxDeltaT1 = 0.000446924
deltaT = 0.00034555
Time = 0.0298847

diagonal:  Solving for rho, Initial residual = 0, Final residual = 0, No Iterations 0
diagonal:  Solving for rhoUx, Initial residual = 0, Final residual = 0, No Iterations 0
smoothSolver:  Solving for Ux, Initial residual = 8.27244e-05, Final residual = 1.85358e-17, No Iterations 1
diagonal:  Solving for rhoE, Initial residual = 0, Final residual = 0, No Iterations 0
smoothSolver:  Solving for e, Initial residual = 5.38761e-05, Final residual = 2.73845e-16, No Iterations 1
ExecutionTime = 0.07 s  ClockTime = 0 s

Courant Number = 0.300006
maxDeltaT1 = 0.000446816
deltaT = 0.00034555
Time = 0.0302303

diagonal:  Solving for rho, Initial residual = 0, Final residual = 0, No Iterations 0
diagonal:  Solving for rhoUx, Initial residual = 0, Final residual = 0, No Iterations 0
smoothSolver:  Solving for Ux, Initial residual = 8.21265e-05, Final residual = 1.49668e-17, No Iterations 1
diagonal:  Solving for rhoE, Initial residual = 0, Final residual = 0, No Iterations 0
smoothSolver:  Solving for e, Initial residual = 5.39137e-05, Final residual = 2.60742e-16, No Iterations 1
ExecutionTime = 0.07 s  ClockTime = 0 s

Courant Number = 0.300176
maxDeltaT1 = 0.000446767
deltaT = 0.00034555
Time = 0.0305758

diagonal:  Solving for rho, Initial residual = 0, Final residual = 0, No Iterations 0
diagonal:  Solving for rhoUx, Initial residual = 0, Final residual = 0, No Iterations 0
smoothSolver:  Solving for Ux, Initial residual = 8.0606e-05, Final residual = 1.50944e-17, No Iterations 1
diagonal:  Solving for rhoE, Initial residual = 0, Final residual = 0, No Iterations 0
smoothSolver:  Solving for e, Initial residual = 5.344e-05, Final residual = 2.52764e-16, No Iterations 1
ExecutionTime = 0.07 s  ClockTime = 0 s

Courant Number = 0.300292
maxDeltaT1 = 0.000446774
deltaT = 0.000345007
Time = 0.0309208

diagonal:  Solving for rho, Initial residual = 0, Final residual = 0, No Iterations 0
diagonal:  Solving for rhoUx, Initial residual = 0, Final residual = 0, No Iterations 0
smoothSolver:  Solving for Ux, Initial residual = 7.8144e-05, Final residual = 1.36458e-17, No Iterations 1
diagonal:  Solving for rhoE, Initial residual = 0, Final residual = 0, No Iterations 0
smoothSolver:  Solving for e, Initial residual = 5.24254e-05, Final residual = 2.78295e-16, No Iterations 1
ExecutionTime = 0.07 s  ClockTime = 0 s

Courant Number = 0.299888
maxDeltaT1 = 0.000446812
deltaT = 0.000345007
Time = 0.0312658

diagonal:  Solving for rho, Initial residual = 0, Final residual = 0, No Iterations 0
diagonal:  Solving for rhoUx, Initial residual = 0, Final residual = 0, No Iterations 0
smoothSolver:  Solving for Ux, Initial residual = 7.724e-05, Final residual = 1.75455e-17, No Iterations 1
diagonal:  Solving for rhoE, Initial residual = 0, Final residual = 0, No Iterations 0
smoothSolver:  Solving for e, Initial residual = 5.2368e-05, Final residual = 2.89763e-16, No Iterations 1
ExecutionTime = 0.07 s  ClockTime = 0 s

Courant Number = 0.299912
maxDeltaT1 = 0.000446649
deltaT = 0.000345007
Time = 0.0316109

diagonal:  Solving for rho, Initial residual = 0, Final residual = 0, No Iterations 0
diagonal:  Solving for rhoUx, Initial residual = 0, Final residual = 0, No Iterations 0
smoothSolver:  Solving for Ux, Initial residual = 7.68055e-05, Final residual = 1.67013e-17, No Iterations 1
diagonal:  Solving for rhoE, Initial residual = 0, Final residual = 0, No Iterations 0
smoothSolver:  Solving for e, Initial residual = 5.23595e-05, Final residual = 2.73247e-16, No Iterations 1
ExecutionTime = 0.07 s  ClockTime = 0 s

Courant Number = 0.299894
maxDeltaT1 = 0.000446541
deltaT = 0.000345007
Time = 0.0319559

diagonal:  Solving for rho, Initial residual = 0, Final residual = 0, No Iterations 0
diagonal:  Solving for rhoUx, Initial residual = 0, Final residual = 0, No Iterations 0
smoothSolver:  Solving for Ux, Initial residual = 7.54903e-05, Final residual = 1.71e-17, No Iterations 1
diagonal:  Solving for rhoE, Initial residual = 0, Final residual = 0, No Iterations 0
smoothSolver:  Solving for e, Initial residual = 5.21277e-05, Final residual = 2.44922e-16, No Iterations 1
ExecutionTime = 0.07 s  ClockTime = 0 s

Courant Number = 0.300027
maxDeltaT1 = 0.000446484
deltaT = 0.000345007
Time = 0.0323009

diagonal:  Solving for rho, Initial residual = 0, Final residual = 0, No Iterations 0
diagonal:  Solving for rhoUx, Initial residual = 0, Final residual = 0, No Iterations 0
smoothSolver:  Solving for Ux, Initial residual = 7.34099e-05, Final residual = 1.82251e-17, No Iterations 1
diagonal:  Solving for rhoE, Initial residual = 0, Final residual = 0, No Iterations 0
smoothSolver:  Solving for e, Initial residual = 5.14278e-05, Final residual = 2.68089e-16, No Iterations 1
ExecutionTime = 0.07 s  ClockTime = 0 s

Courant Number = 0.300143
maxDeltaT1 = 0.000446476
deltaT = 0.000345007
Time = 0.0326459

diagonal:  Solving for rho, Initial residual = 0, Final residual = 0, No Iterations 0
diagonal:  Solving for rhoUx, Initial residual = 0, Final residual = 0, No Iterations 0
smoothSolver:  Solving for Ux, Initial residual = 7.24027e-05, Final residual = 1.7601e-17, No Iterations 1
diagonal:  Solving for rhoE, Initial residual = 0, Final residual = 0, No Iterations 0
smoothSolver:  Solving for e, Initial residual = 5.14456e-05, Final residual = 2.68522e-16, No Iterations 1
ExecutionTime = 0.07 s  ClockTime = 0 s

Courant Number = 0.300216
maxDeltaT1 = 0.000446514
deltaT = 0.000345007
Time = 0.0329909

diagonal:  Solving for rho, Initial residual = 0, Final residual = 0, No Iterations 0
diagonal:  Solving for rhoUx, Initial residual = 0, Final residual = 0, No Iterations 0
smoothSolver:  Solving for Ux, Initial residual = 7.21729e-05, Final residual = 1.51917e-17, No Iterations 1
diagonal:  Solving for rhoE, Initial residual = 0, Final residual = 0, No Iterations 0
smoothSolver:  Solving for e, Initial residual = 5.15448e-05, Final residual = 2.53851e-16, No Iterations 1
ExecutionTime = 0.07 s  ClockTime = 0 s

Courant Number = 0.30025
maxDeltaT1 = 0.000446412
deltaT = 0.000344459
Time = 0.0333353

diagonal:  Solving for rho, Initial residual = 0, Final residual = 0, No Iterations 0
diagonal:  Solving for rhoUx, Initial residual = 0, Final residual = 0, No Iterations 0
smoothSolver:  Solving for Ux, Initial residual = 7.09906e-05, Final residual = 1.88408e-17, No Iterations 1
diagonal:  Solving for rhoE, Initial residual = 0, Final residual = 0, No Iterations 0
smoothSolver:  Solving for e, Initial residual = 5.10742e-05, Final residual = 2.82466e-16, No Iterations 1
ExecutionTime = 0.08 s  ClockTime = 0 s

Courant Number = 0.29977
maxDeltaT1 = 0.000446306
deltaT = 0.000344459
Time = 0.0336798

diagonal:  Solving for rho, Initial residual = 0, Final residual = 0, No Iterations 0
diagonal:  Solving for rhoUx, Initial residual = 0, Final residual = 0, No Iterations 0
smoothSolver:  Solving for Ux, Initial residual = 6.91587e-05, Final residual = 1.70351e-17, No Iterations 1
diagonal:  Solving for rhoE, Initial residual = 0, Final residual = 0, No Iterations 0
smoothSolver:  Solving for e, Initial residual = 5.02381e-05, Final residual = 2.60935e-16, No Iterations 1
ExecutionTime = 0.08 s  ClockTime = 0 s

Courant Number = 0.299833
maxDeltaT1 = 0.000446244
deltaT = 0.000344459
Time = 0.0340243

diagonal:  Solving for rho, Initial residual = 0, Final residual = 0, No Iterations 0
diagonal:  Solving for rhoUx, Initial residual = 0, Final residual = 0, No Iterations 0
smoothSolver:  Solving for Ux, Initial residual = 6.79834e-05, Final residual = 1.32093e-17, No Iterations 1
diagonal:  Solving for rhoE, Initial residual = 0, Final residual = 0, No Iterations 0
smoothSolver:  Solving for e, Initial residual = 4.99659e-05, Final residual = 2.7803e-16, No Iterations 1
ExecutionTime = 0.08 s  ClockTime = 0 s

Courant Number = 0.299946
maxDeltaT1 = 0.000446225
deltaT = 0.000344459
Time = 0.0343687

diagonal:  Solving for rho, Initial residual = 0, Final residual = 0, No Iterations 0
diagonal:  Solving for rhoUx, Initial residual = 0, Final residual = 0, No Iterations 0
smoothSolver:  Solving for Ux, Initial residual = 6.78877e-05, Final residual = 1.77164e-17, No Iterations 1
diagonal:  Solving for rhoE, Initial residual = 0, Final residual = 0, No Iterations 0
smoothSolver:  Solving for e, Initial residual = 5.02028e-05, Final residual = 2.49232e-16, No Iterations 1
ExecutionTime = 0.08 s  ClockTime = 0 s

Courant Number = 0.300022
maxDeltaT1 = 0.000446245
deltaT = 0.000344459
Time = 0.0347132

diagonal:  Solving for rho, Initial residual = 0, Final residual = 0, No Iterations 0
diagonal:  Solving for rhoUx, Initial residual = 0, Final residual = 0, No Iterations 0
smoothSolver:  Solving for Ux, Initial residual = 6.69859e-05, Final residual = 1.79214e-17, No Iterations 1
diagonal:  Solving for rhoE, Initial residual = 0, Final residual = 0, No Iterations 0
smoothSolver:  Solving for e, Initial residual = 5.00649e-05, Final residual = 2.72504e-16, No Iterations 1
ExecutionTime = 0.08 s  ClockTime = 0 s

Courant Number = 0.300063
maxDeltaT1 = 0.000446208
deltaT = 0.000344459
Time = 0.0350576

diagonal:  Solving for rho, Initial residual = 0, Final residual = 0, No Iterations 0
diagonal:  Solving for rhoUx, Initial residual = 0, Final residual = 0, No Iterations 0
smoothSolver:  Solving for Ux, Initial residual = 6.53688e-05, Final residual = 1.4316e-17, No Iterations 1
diagonal:  Solving for rhoE, Initial residual = 0, Final residual = 0, No Iterations 0
smoothSolver:  Solving for e, Initial residual = 4.94625e-05, Final residual = 2.53252e-16, No Iterations 1
ExecutionTime = 0.08 s  ClockTime = 0 s

Courant Number = 0.300071
maxDeltaT1 = 0.000446105
deltaT = 0.000344459
Time = 0.0354021

diagonal:  Solving for rho, Initial residual = 0, Final residual = 0, No Iterations 0
diagonal:  Solving for rhoUx, Initial residual = 0, Final residual = 0, No Iterations 0
smoothSolver:  Solving for Ux, Initial residual = 6.40653e-05, Final residual = 1.8133e-17, No Iterations 1
diagonal:  Solving for rhoE, Initial residual = 0, Final residual = 0, No Iterations 0
smoothSolver:  Solving for e, Initial residual = 4.9234e-05, Final residual = 2.81241e-16, No Iterations 1
ExecutionTime = 0.08 s  ClockTime = 0 s

Courant Number = 0.300079
maxDeltaT1 = 0.00044604
deltaT = 0.000344459
Time = 0.0357465

diagonal:  Solving for rho, Initial residual = 0, Final residual = 0, No Iterations 0
diagonal:  Solving for rhoUx, Initial residual = 0, Final residual = 0, No Iterations 0
smoothSolver:  Solving for Ux, Initial residual = 6.41359e-05, Final residual = 1.69556e-17, No Iterations 1
diagonal:  Solving for rhoE, Initial residual = 0, Final residual = 0, No Iterations 0
smoothSolver:  Solving for e, Initial residual = 4.9437e-05, Final residual = 2.60027e-16, No Iterations 1
ExecutionTime = 0.08 s  ClockTime = 0 s

Courant Number = 0.30019
maxDeltaT1 = 0.000446012
deltaT = 0.000344459
Time = 0.036091

diagonal:  Solving for rho, Initial residual = 0, Final residual = 0, No Iterations 0
diagonal:  Solving for rhoUx, Initial residual = 0, Final residual = 0, No Iterations 0
smoothSolver:  Solving for Ux, Initial residual = 6.34303e-05, Final residual = 1.55156e-17, No Iterations 1
diagonal:  Solving for rhoE, Initial residual = 0, Final residual = 0, No Iterations 0
smoothSolver:  Solving for e, Initial residual = 4.91647e-05, Final residual = 2.56595e-16, No Iterations 1
ExecutionTime = 0.08 s  ClockTime = 0 s

Courant Number = 0.300267
maxDeltaT1 = 0.000446019
deltaT = 0.000343905
Time = 0.0364349

diagonal:  Solving for rho, Initial residual = 0, Final residual = 0, No Iterations 0
diagonal:  Solving for rhoUx, Initial residual = 0, Final residual = 0, No Iterations 0
smoothSolver:  Solving for Ux, Initial residual = 6.19103e-05, Final residual = 1.63468e-17, No Iterations 1
diagonal:  Solving for rhoE, Initial residual = 0, Final residual = 0, No Iterations 0
smoothSolver:  Solving for e, Initial residual = 4.83707e-05, Final residual = 2.80963e-16, No Iterations 1
ExecutionTime = 0.08 s  ClockTime = 0 s

Courant Number = 0.29983
maxDeltaT1 = 0.000446031
deltaT = 0.000343905
Time = 0.0367788

diagonal:  Solving for rho, Initial residual = 0, Final residual = 0, No Iterations 0
diagonal:  Solving for rhoUx, Initial residual = 0, Final residual = 0, No Iterations 0
smoothSolver:  Solving for Ux, Initial residual = 6.04365e-05, Final residual = 1.3703e-17, No Iterations 1
diagonal:  Solving for rhoE, Initial residual = 0, Final residual = 0, No Iterations 0
smoothSolver:  Solving for e, Initial residual = 4.78469e-05, Final residual = 2.87647e-16, No Iterations 1
ExecutionTime = 0.08 s  ClockTime = 0 s

Courant Number = 0.299847
maxDeltaT1 = 0.000445932
deltaT = 0.000343905
Time = 0.0371227

diagonal:  Solving for rho, Initial residual = 0, Final residual = 0, No Iterations 0
diagonal:  Solving for rhoUx, Initial residual = 0, Final residual = 0, No Iterations 0
smoothSolver:  Solving for Ux, Initial residual = 6.06181e-05, Final residual = 1.48045e-17, No Iterations 1
diagonal:  Solving for rhoE, Initial residual = 0, Final residual = 0, No Iterations 0
smoothSolver:  Solving for e, Initial residual = 4.82615e-05, Final residual = 2.64919e-16, No Iterations 1
ExecutionTime = 0.08 s  ClockTime = 0 s

Courant Number = 0.299837
maxDeltaT1 = 0.000445866
deltaT = 0.000343905
Time = 0.0374666

diagonal:  Solving for rho, Initial residual = 0, Final residual = 0, No Iterations 0
diagonal:  Solving for rhoUx, Initial residual = 0, Final residual = 0, No Iterations 0
smoothSolver:  Solving for Ux, Initial residual = 6.00574e-05, Final residual = 1.54038e-17, No Iterations 1
diagonal:  Solving for rhoE, Initial residual = 0, Final residual = 0, No Iterations 0
smoothSolver:  Solving for e, Initial residual = 4.82028e-05, Final residual = 2.62104e-16, No Iterations 1
ExecutionTime = 0.08 s  ClockTime = 0 s

Courant Number = 0.299919
maxDeltaT1 = 0.000445832
deltaT = 0.000343905
Time = 0.0378105

diagonal:  Solving for rho, Initial residual = 0, Final residual = 0, No Iterations 0
diagonal:  Solving for rhoUx, Initial residual = 0, Final residual = 0, No Iterations 0
smoothSolver:  Solving for Ux, Initial residual = 5.88271e-05, Final residual = 1.48596e-17, No Iterations 1
diagonal:  Solving for rhoE, Initial residual = 0, Final residual = 0, No Iterations 0
smoothSolver:  Solving for e, Initial residual = 4.76863e-05, Final residual = 2.60888e-16, No Iterations 1
ExecutionTime = 0.08 s  ClockTime = 0 s

Courant Number = 0.299996
maxDeltaT1 = 0.000445829
deltaT = 0.000343905
Time = 0.0381544

diagonal:  Solving for rho, Initial residual = 0, Final residual = 0, No Iterations 0
diagonal:  Solving for rhoUx, Initial residual = 0, Final residual = 0, No Iterations 0
smoothSolver:  Solving for Ux, Initial residual = 5.72032e-05, Final residual = 1.706e-17, No Iterations 1
diagonal:  Solving for rhoE, Initial residual = 0, Final residual = 0, No Iterations 0
smoothSolver:  Solving for e, Initial residual = 4.71709e-05, Final residual = 2.5221e-16, No Iterations 1
ExecutionTime = 0.08 s  ClockTime = 0 s

Courant Number = 0.300045
maxDeltaT1 = 0.000445854
deltaT = 0.000343905
Time = 0.0384983

diagonal:  Solving for rho, Initial residual = 0, Final residual = 0, No Iterations 0
diagonal:  Solving for rhoUx, Initial residual = 0, Final residual = 0, No Iterations 0
smoothSolver:  Solving for Ux, Initial residual = 5.75233e-05, Final residual = 1.29411e-17, No Iterations 1
diagonal:  Solving for rhoE, Initial residual = 0, Final residual = 0, No Iterations 0
smoothSolver:  Solving for e, Initial residual = 4.74676e-05, Final residual = 2.53522e-16, No Iterations 1
ExecutionTime = 0.09 s  ClockTime = 0 s

Courant Number = 0.300069
maxDeltaT1 = 0.000445784
deltaT = 0.000343905
Time = 0.0388422

diagonal:  Solving for rho, Initial residual = 0, Final residual = 0, No Iterations 0
diagonal:  Solving for rhoUx, Initial residual = 0, Final residual = 0, No Iterations 0
smoothSolver:  Solving for Ux, Initial residual = 5.71283e-05, Final residual = 1.52233e-17, No Iterations 1
diagonal:  Solving for rhoE, Initial residual = 0, Final residual = 0, No Iterations 0
smoothSolver:  Solving for e, Initial residual = 4.73056e-05, Final residual = 2.55371e-16, No Iterations 1
ExecutionTime = 0.09 s  ClockTime = 0 s

Courant Number = 0.300068
maxDeltaT1 = 0.000445718
deltaT = 0.000343905
Time = 0.0391862

diagonal:  Solving for rho, Initial residual = 0, Final residual = 0, No Iterations 0
diagonal:  Solving for rhoUx, Initial residual = 0, Final residual = 0, No Iterations 0
smoothSolver:  Solving for Ux, Initial residual = 5.60553e-05, Final residual = 1.85711e-17, No Iterations 1
diagonal:  Solving for rhoE, Initial residual = 0, Final residual = 0, No Iterations 0
smoothSolver:  Solving for e, Initial residual = 4.6703e-05, Final residual = 2.70759e-16, No Iterations 1
ExecutionTime = 0.09 s  ClockTime = 0 s

Courant Number = 0.300105
maxDeltaT1 = 0.00044568
deltaT = 0.000343905
Time = 0.0395301

diagonal:  Solving for rho, Initial residual = 0, Final residual = 0, No Iterations 0
diagonal:  Solving for rhoUx, Initial residual = 0, Final residual = 0, No Iterations 0
smoothSolver:  Solving for Ux, Initial residual = 5.4384e-05, Final residual = 1.31079e-17, No Iterations 1
diagonal:  Solving for rhoE, Initial residual = 0, Final residual = 0, No Iterations 0
smoothSolver:  Solving for e, Initial residual = 4.59982e-05, Final residual = 2.63668e-16, No Iterations 1
ExecutionTime = 0.09 s  ClockTime = 0 s

Courant Number = 0.30018
maxDeltaT1 = 0.000445668
deltaT = 0.000343905
Time = 0.039874

diagonal:  Solving for rho, Initial residual = 0, Final residual = 0, No Iterations 0
diagonal:  Solving for rhoUx, Initial residual = 0, Final residual = 0, No Iterations 0
smoothSolver:  Solving for Ux, Initial residual = 5.46725e-05, Final residual = 1.75256e-17, No Iterations 1
diagonal:  Solving for rhoE, Initial residual = 0, Final residual = 0, No Iterations 0
smoothSolver:  Solving for e, Initial residual = 4.6502e-05, Final residual = 2.71162e-16, No Iterations 1
ExecutionTime = 0.09 s  ClockTime = 0 s

Courant Number = 0.300231
maxDeltaT1 = 0.000445682
deltaT = 0.000343905
Time = 0.0402179

diagonal:  Solving for rho, Initial residual = 0, Final residual = 0, No Iterations 0
diagonal:  Solving for rhoUx, Initial residual = 0, Final residual = 0, No Iterations 0
smoothSolver:  Solving for Ux, Initial residual = 5.44005e-05, Final residual = 1.77129e-17, No Iterations 1
diagonal:  Solving for rhoE, Initial residual = 0, Final residual = 0, No Iterations 0
smoothSolver:  Solving for e, Initial residual = 4.65496e-05, Final residual = 2.44052e-16, No Iterations 1
ExecutionTime = 0.09 s  ClockTime = 0 s

Courant Number = 0.300259
maxDeltaT1 = 0.000445656
deltaT = 0.000343342
Time = 0.0405612

diagonal:  Solving for rho, Initial residual = 0, Final residual = 0, No Iterations 0
diagonal:  Solving for rhoUx, Initial residual = 0, Final residual = 0, No Iterations 0
smoothSolver:  Solving for Ux, Initial residual = 5.34052e-05, Final residual = 1.53463e-17, No Iterations 1
diagonal:  Solving for rhoE, Initial residual = 0, Final residual = 0, No Iterations 0
smoothSolver:  Solving for e, Initial residual = 4.60748e-05, Final residual = 2.85518e-16, No Iterations 1
ExecutionTime = 0.09 s  ClockTime = 0 s

Courant Number = 0.299775
maxDeltaT1 = 0.000445591
deltaT = 0.000343342
Time = 0.0409046

diagonal:  Solving for rho, Initial residual = 0, Final residual = 0, No Iterations 0
diagonal:  Solving for rhoUx, Initial residual = 0, Final residual = 0, No Iterations 0
smoothSolver:  Solving for Ux, Initial residual = 5.19132e-05, Final residual = 1.615e-17, No Iterations 1
diagonal:  Solving for rhoE, Initial residual = 0, Final residual = 0, No Iterations 0
smoothSolver:  Solving for e, Initial residual = 4.52927e-05, Final residual = 2.69573e-16, No Iterations 1
ExecutionTime = 0.09 s  ClockTime = 0 s

Courant Number = 0.299776
maxDeltaT1 = 0.00044555
deltaT = 0.000343342
Time = 0.0412479

diagonal:  Solving for rho, Initial residual = 0, Final residual = 0, No Iterations 0
diagonal:  Solving for rhoUx, Initial residual = 0, Final residual = 0, No Iterations 0
smoothSolver:  Solving for Ux, Initial residual = 5.19917e-05, Final residual = 1.53345e-17, No Iterations 1
diagonal:  Solving for rhoE, Initial residual = 0, Final residual = 0, No Iterations 0
smoothSolver:  Solving for e, Initial residual = 4.56753e-05, Final residual = 2.6887e-16, No Iterations 1
ExecutionTime = 0.09 s  ClockTime = 0 s

Courant Number = 0.299849
maxDeltaT1 = 0.000445533
deltaT = 0.000343342
Time = 0.0415912

diagonal:  Solving for rho, Initial residual = 0, Final residual = 0, No Iterations 0
diagonal:  Solving for rhoUx, Initial residual = 0, Final residual = 0, No Iterations 0
smoothSolver:  Solving for Ux, Initial residual = 5.18607e-05, Final residual = 1.63854e-17, No Iterations 1
diagonal:  Solving for rhoE, Initial residual = 0, Final residual = 0, No Iterations 0
smoothSolver:  Solving for e, Initial residual = 4.56365e-05, Final residual = 2.75173e-16, No Iterations 1
ExecutionTime = 0.09 s  ClockTime = 0 s

Courant Number = 0.299901
maxDeltaT1 = 0.000445537
deltaT = 0.000343342
Time = 0.0419346

diagonal:  Solving for rho, Initial residual = 0, Final residual = 0, No Iterations 0
diagonal:  Solving for rhoUx, Initial residual = 0, Final residual = 0, No Iterations 0
smoothSolver:  Solving for Ux, Initial residual = 5.10849e-05, Final residual = 1.61292e-17, No Iterations 1
diagonal:  Solving for rhoE, Initial residual = 0, Final residual = 0, No Iterations 0
smoothSolver:  Solving for e, Initial residual = 4.51607e-05, Final residual = 2.78179e-16, No Iterations 1
ExecutionTime = 0.09 s  ClockTime = 0 s

Courant Number = 0.299932
maxDeltaT1 = 0.000445547
deltaT = 0.000343342
Time = 0.0422779

diagonal:  Solving for rho, Initial residual = 0, Final residual = 0, No Iterations 0
diagonal:  Solving for rhoUx, Initial residual = 0, Final residual = 0, No Iterations 0
smoothSolver:  Solving for Ux, Initial residual = 4.9738e-05, Final residual = 1.48156e-17, No Iterations 1
diagonal:  Solving for rhoE, Initial residual = 0, Final residual = 0, No Iterations 0
smoothSolver:  Solving for e, Initial residual = 4.44724e-05, Final residual = 2.69672e-16, No Iterations 1
ExecutionTime = 0.09 s  ClockTime = 0 s

Courant Number = 0.299944
maxDeltaT1 = 0.000445483
deltaT = 0.000343342
Time = 0.0426213

diagonal:  Solving for rho, Initial residual = 0, Final residual = 0, No Iterations 0
diagonal:  Solving for rhoUx, Initial residual = 0, Final residual = 0, No Iterations 0
smoothSolver:  Solving for Ux, Initial residual = 4.95804e-05, Final residual = 1.85733e-17, No Iterations 1
diagonal:  Solving for rhoE, Initial residual = 0, Final residual = 0, No Iterations 0
smoothSolver:  Solving for e, Initial residual = 4.48375e-05, Final residual = 2.8003e-16, No Iterations 1
ExecutionTime = 0.09 s  ClockTime = 0 s

Courant Number = 0.299939
maxDeltaT1 = 0.000445441
deltaT = 0.000343342
Time = 0.0429646

diagonal:  Solving for rho, Initial residual = 0, Final residual = 0, No Iterations 0
diagonal:  Solving for rhoUx, Initial residual = 0, Final residual = 0, No Iterations 0
smoothSolver:  Solving for Ux, Initial residual = 4.95625e-05, Final residual = 1.63321e-17, No Iterations 1
diagonal:  Solving for rhoE, Initial residual = 0, Final residual = 0, No Iterations 0
smoothSolver:  Solving for e, Initial residual = 4.4986e-05, Final residual = 2.7828e-16, No Iterations 1
ExecutionTime = 0.09 s  ClockTime = 0 s

Courant Number = 0.299989
maxDeltaT1 = 0.000445418
deltaT = 0.000343342
Time = 0.0433079

diagonal:  Solving for rho, Initial residual = 0, Final residual = 0, No Iterations 0
diagonal:  Solving for rhoUx, Initial residual = 0, Final residual = 0, No Iterations 0
smoothSolver:  Solving for Ux, Initial residual = 4.8932e-05, Final residual = 1.69915e-17, No Iterations 1
diagonal:  Solving for rhoE, Initial residual = 0, Final residual = 0, No Iterations 0
smoothSolver:  Solving for e, Initial residual = 4.46998e-05, Final residual = 2.79534e-16, No Iterations 1
ExecutionTime = 0.1 s  ClockTime = 0 s

Courant Number = 0.30004
maxDeltaT1 = 0.000445415
deltaT = 0.000343342
Time = 0.0436513

diagonal:  Solving for rho, Initial residual = 0, Final residual = 0, No Iterations 0
diagonal:  Solving for rhoUx, Initial residual = 0, Final residual = 0, No Iterations 0
smoothSolver:  Solving for Ux, Initial residual = 4.77328e-05, Final residual = 1.55924e-17, No Iterations 1
diagonal:  Solving for rhoE, Initial residual = 0, Final residual = 0, No Iterations 0
smoothSolver:  Solving for e, Initial residual = 4.40177e-05, Final residual = 2.72239e-16, No Iterations 1
ExecutionTime = 0.1 s  ClockTime = 0 s

Courant Number = 0.300074
maxDeltaT1 = 0.000445431
deltaT = 0.000343342
Time = 0.0439946

diagonal:  Solving for rho, Initial residual = 0, Final residual = 0, No Iterations 0
diagonal:  Solving for rhoUx, Initial residual = 0, Final residual = 0, No Iterations 0
smoothSolver:  Solving for Ux, Initial residual = 4.73692e-05, Final residual = 1.4017e-17, No Iterations 1
diagonal:  Solving for rhoE, Initial residual = 0, Final residual = 0, No Iterations 0
smoothSolver:  Solving for e, Initial residual = 4.40919e-05, Final residual = 2.58403e-16, No Iterations 1
ExecutionTime = 0.1 s  ClockTime = 0 s

Courant Number = 0.30009
maxDeltaT1 = 0.000445391
deltaT = 0.000343342
Time = 0.044338

diagonal:  Solving for rho, Initial residual = 0, Final residual = 0, No Iterations 0
diagonal:  Solving for rhoUx, Initial residual = 0, Final residual = 0, No Iterations 0
[...]
deltaT = 0.000342147
Time = 0.239051

diagonal:  Solving for rho, Initial residual = 0, Final residual = 0, No Iterations 0
diagonal:  Solving for rhoUx, Initial residual = 0, Final residual = 0, No Iterations 0
smoothSolver:  Solving for Ux, Initial residual = 1.02732e-05, Final residual = 2.97951e-17, No Iterations 1
diagonal:  Solving for rhoE, Initial residual = 0, Final residual = 0, No Iterations 0
smoothSolver:  Solving for e, Initial residual = 2.11376e-05, Final residual = 2.73772e-16, No Iterations 1
ExecutionTime = 0.49 s  ClockTime = 0 s

Courant Number = 0.299962
maxDeltaT1 = 0.000444924
deltaT = 0.000342147
Time = 0.239393

diagonal:  Solving for rho, Initial residual = 0, Final residual = 0, No Iterations 0
diagonal:  Solving for rhoUx, Initial residual = 0, Final residual = 0, No Iterations 0
smoothSolver:  Solving for Ux, Initial residual = 1.03735e-05, Final residual = 3.03087e-17, No Iterations 1
diagonal:  Solving for rhoE, Initial residual = 0, Final residual = 0, No Iterations 0
smoothSolver:  Solving for e, Initial residual = 2.14625e-05, Final residual = 2.6666e-16, No Iterations 1
ExecutionTime = 0.49 s  ClockTime = 0 s

Courant Number = 0.299962
maxDeltaT1 = 0.000444925
deltaT = 0.000342147
Time = 0.239736

diagonal:  Solving for rho, Initial residual = 0, Final residual = 0, No Iterations 0
diagonal:  Solving for rhoUx, Initial residual = 0, Final residual = 0, No Iterations 0
smoothSolver:  Solving for Ux, Initial residual = 1.05594e-05, Final residual = 3.47954e-17, No Iterations 1
diagonal:  Solving for rhoE, Initial residual = 0, Final residual = 0, No Iterations 0
smoothSolver:  Solving for e, Initial residual = 2.16943e-05, Final residual = 2.76175e-16, No Iterations 1
ExecutionTime = 0.49 s  ClockTime = 0 s

Courant Number = 0.299962
maxDeltaT1 = 0.000444925
deltaT = 0.000342147
Time = 0.240078

diagonal:  Solving for rho, Initial residual = 0, Final residual = 0, No Iterations 0
diagonal:  Solving for rhoUx, Initial residual = 0, Final residual = 0, No Iterations 0
smoothSolver:  Solving for Ux, Initial residual = 1.05358e-05, Final residual = 3.42084e-17, No Iterations 1
diagonal:  Solving for rhoE, Initial residual = 0, Final residual = 0, No Iterations 0
smoothSolver:  Solving for e, Initial residual = 2.15921e-05, Final residual = 2.68215e-16, No Iterations 1
ExecutionTime = 0.5 s  ClockTime = 0 s

Courant Number = 0.299962
maxDeltaT1 = 0.000444925
deltaT = 0.000342147
Time = 0.24042

diagonal:  Solving for rho, Initial residual = 0, Final residual = 0, No Iterations 0
diagonal:  Solving for rhoUx, Initial residual = 0, Final residual = 0, No Iterations 0
smoothSolver:  Solving for Ux, Initial residual = 1.03177e-05, Final residual = 3.25145e-17, No Iterations 1
diagonal:  Solving for rhoE, Initial residual = 0, Final residual = 0, No Iterations 0
smoothSolver:  Solving for e, Initial residual = 2.1185e-05, Final residual = 2.71386e-16, No Iterations 1
ExecutionTime = 0.5 s  ClockTime = 0 s

Courant Number = 0.299962
maxDeltaT1 = 0.000444925
deltaT = 0.000342147
Time = 0.240762

diagonal:  Solving for rho, Initial residual = 0, Final residual = 0, No Iterations 0
diagonal:  Solving for rhoUx, Initial residual = 0, Final residual = 0, No Iterations 0
smoothSolver:  Solving for Ux, Initial residual = 1.03113e-05, Final residual = 3.27036e-17, No Iterations 1
diagonal:  Solving for rhoE, Initial residual = 0, Final residual = 0, No Iterations 0
smoothSolver:  Solving for e, Initial residual = 2.13336e-05, Final residual = 2.59421e-16, No Iterations 1
ExecutionTime = 0.5 s  ClockTime = 0 s

Courant Number = 0.299962
maxDeltaT1 = 0.000444925
deltaT = 0.000342147
Time = 0.241104

diagonal:  Solving for rho, Initial residual = 0, Final residual = 0, No Iterations 0
diagonal:  Solving for rhoUx, Initial residual = 0, Final residual = 0, No Iterations 0
smoothSolver:  Solving for Ux, Initial residual = 1.0533e-05, Final residual = 3.02798e-17, No Iterations 1
diagonal:  Solving for rhoE, Initial residual = 0, Final residual = 0, No Iterations 0
smoothSolver:  Solving for e, Initial residual = 2.16125e-05, Final residual = 2.51575e-16, No Iterations 1
ExecutionTime = 0.5 s  ClockTime = 0 s

Courant Number = 0.299962
maxDeltaT1 = 0.000444925
deltaT = 0.000342147
Time = 0.241446

diagonal:  Solving for rho, Initial residual = 0, Final residual = 0, No Iterations 0
diagonal:  Solving for rhoUx, Initial residual = 0, Final residual = 0, No Iterations 0
smoothSolver:  Solving for Ux, Initial residual = 1.05445e-05, Final residual = 2.98051e-17, No Iterations 1
diagonal:  Solving for rhoE, Initial residual = 0, Final residual = 0, No Iterations 0
smoothSolver:  Solving for e, Initial residual = 2.15673e-05, Final residual = 2.69402e-16, No Iterations 1
ExecutionTime = 0.5 s  ClockTime = 0 s

Courant Number = 0.299962
maxDeltaT1 = 0.000444925
deltaT = 0.000342147
Time = 0.241788

diagonal:  Solving for rho, Initial residual = 0, Final residual = 0, No Iterations 0
diagonal:  Solving for rhoUx, Initial residual = 0, Final residual = 0, No Iterations 0
smoothSolver:  Solving for Ux, Initial residual = 1.03578e-05, Final residual = 3.33278e-17, No Iterations 1
diagonal:  Solving for rhoE, Initial residual = 0, Final residual = 0, No Iterations 0
smoothSolver:  Solving for e, Initial residual = 2.12164e-05, Final residual = 2.48947e-16, No Iterations 1
ExecutionTime = 0.5 s  ClockTime = 0 s

Courant Number = 0.299962
maxDeltaT1 = 0.000444925
deltaT = 0.000342147
Time = 0.242131

diagonal:  Solving for rho, Initial residual = 0, Final residual = 0, No Iterations 0
diagonal:  Solving for rhoUx, Initial residual = 0, Final residual = 0, No Iterations 0
smoothSolver:  Solving for Ux, Initial residual = 1.02435e-05, Final residual = 3.16069e-17, No Iterations 1
diagonal:  Solving for rhoE, Initial residual = 0, Final residual = 0, No Iterations 0
smoothSolver:  Solving for e, Initial residual = 2.1203e-05, Final residual = 2.52331e-16, No Iterations 1
ExecutionTime = 0.5 s  ClockTime = 0 s

Courant Number = 0.299962
maxDeltaT1 = 0.000444925
deltaT = 0.000342147
Time = 0.242473

diagonal:  Solving for rho, Initial residual = 0, Final residual = 0, No Iterations 0
diagonal:  Solving for rhoUx, Initial residual = 0, Final residual = 0, No Iterations 0
smoothSolver:  Solving for Ux, Initial residual = 1.05012e-05, Final residual = 3.32753e-17, No Iterations 1
diagonal:  Solving for rhoE, Initial residual = 0, Final residual = 0, No Iterations 0
smoothSolver:  Solving for e, Initial residual = 2.15476e-05, Final residual = 2.91391e-16, No Iterations 1
ExecutionTime = 0.5 s  ClockTime = 0 s

Courant Number = 0.299962
maxDeltaT1 = 0.000444925
deltaT = 0.000342147
Time = 0.242815

diagonal:  Solving for rho, Initial residual = 0, Final residual = 0, No Iterations 0
diagonal:  Solving for rhoUx, Initial residual = 0, Final residual = 0, No Iterations 0
smoothSolver:  Solving for Ux, Initial residual = 1.05482e-05, Final residual = 3.58073e-17, No Iterations 1
diagonal:  Solving for rhoE, Initial residual = 0, Final residual = 0, No Iterations 0
smoothSolver:  Solving for e, Initial residual = 2.15562e-05, Final residual = 2.5449e-16, No Iterations 1
ExecutionTime = 0.5 s  ClockTime = 0 s

Courant Number = 0.299962
maxDeltaT1 = 0.000444925
deltaT = 0.000342147
Time = 0.243157

diagonal:  Solving for rho, Initial residual = 0, Final residual = 0, No Iterations 0
diagonal:  Solving for rhoUx, Initial residual = 0, Final residual = 0, No Iterations 0
smoothSolver:  Solving for Ux, Initial residual = 1.03937e-05, Final residual = 3.24415e-17, No Iterations 1
diagonal:  Solving for rhoE, Initial residual = 0, Final residual = 0, No Iterations 0
smoothSolver:  Solving for e, Initial residual = 2.12476e-05, Final residual = 2.65034e-16, No Iterations 1
ExecutionTime = 0.5 s  ClockTime = 0 s

Courant Number = 0.299962
maxDeltaT1 = 0.000444926
deltaT = 0.000342147
Time = 0.243499

diagonal:  Solving for rho, Initial residual = 0, Final residual = 0, No Iterations 0
diagonal:  Solving for rhoUx, Initial residual = 0, Final residual = 0, No Iterations 0
smoothSolver:  Solving for Ux, Initial residual = 1.01702e-05, Final residual = 3.47329e-17, No Iterations 1
diagonal:  Solving for rhoE, Initial residual = 0, Final residual = 0, No Iterations 0
smoothSolver:  Solving for e, Initial residual = 2.10544e-05, Final residual = 2.69911e-16, No Iterations 1
ExecutionTime = 0.5 s  ClockTime = 0 s

Courant Number = 0.299961
maxDeltaT1 = 0.000444926
deltaT = 0.000342147
Time = 0.243841

diagonal:  Solving for rho, Initial residual = 0, Final residual = 0, No Iterations 0
diagonal:  Solving for rhoUx, Initial residual = 0, Final residual = 0, No Iterations 0
smoothSolver:  Solving for Ux, Initial residual = 1.04637e-05, Final residual = 3.22295e-17, No Iterations 1
diagonal:  Solving for rhoE, Initial residual = 0, Final residual = 0, No Iterations 0
smoothSolver:  Solving for e, Initial residual = 2.14457e-05, Final residual = 2.58139e-16, No Iterations 1
ExecutionTime = 0.5 s  ClockTime = 0 s

Courant Number = 0.299961
maxDeltaT1 = 0.000444926
deltaT = 0.000342147
Time = 0.244184

diagonal:  Solving for rho, Initial residual = 0, Final residual = 0, No Iterations 0
diagonal:  Solving for rhoUx, Initial residual = 0, Final residual = 0, No Iterations 0
smoothSolver:  Solving for Ux, Initial residual = 1.05466e-05, Final residual = 3.3082e-17, No Iterations 1
diagonal:  Solving for rhoE, Initial residual = 0, Final residual = 0, No Iterations 0
smoothSolver:  Solving for e, Initial residual = 2.15158e-05, Final residual = 2.47307e-16, No Iterations 1
ExecutionTime = 0.5 s  ClockTime = 0 s

Courant Number = 0.299961
maxDeltaT1 = 0.000444926
deltaT = 0.000342147
Time = 0.244526

diagonal:  Solving for rho, Initial residual = 0, Final residual = 0, No Iterations 0
diagonal:  Solving for rhoUx, Initial residual = 0, Final residual = 0, No Iterations 0
smoothSolver:  Solving for Ux, Initial residual = 1.04251e-05, Final residual = 3.43666e-17, No Iterations 1
diagonal:  Solving for rhoE, Initial residual = 0, Final residual = 0, No Iterations 0
smoothSolver:  Solving for e, Initial residual = 2.12657e-05, Final residual = 2.5671e-16, No Iterations 1
ExecutionTime = 0.5 s  ClockTime = 0 s

Courant Number = 0.299961
maxDeltaT1 = 0.000444926
deltaT = 0.000342147
Time = 0.244868

diagonal:  Solving for rho, Initial residual = 0, Final residual = 0, No Iterations 0
diagonal:  Solving for rhoUx, Initial residual = 0, Final residual = 0, No Iterations 0
smoothSolver:  Solving for Ux, Initial residual = 1.01225e-05, Final residual = 3.42192e-17, No Iterations 1
diagonal:  Solving for rhoE, Initial residual = 0, Final residual = 0, No Iterations 0
smoothSolver:  Solving for e, Initial residual = 2.09075e-05, Final residual = 2.43751e-16, No Iterations 1
ExecutionTime = 0.5 s  ClockTime = 0 s

Courant Number = 0.299961
maxDeltaT1 = 0.000444926
deltaT = 0.000342147
Time = 0.24521

diagonal:  Solving for rho, Initial residual = 0, Final residual = 0, No Iterations 0
diagonal:  Solving for rhoUx, Initial residual = 0, Final residual = 0, No Iterations 0
smoothSolver:  Solving for Ux, Initial residual = 1.04209e-05, Final residual = 3.2386e-17, No Iterations 1
diagonal:  Solving for rhoE, Initial residual = 0, Final residual = 0, No Iterations 0
smoothSolver:  Solving for e, Initial residual = 2.13636e-05, Final residual = 2.75345e-16, No Iterations 1
ExecutionTime = 0.5 s  ClockTime = 0 s

Courant Number = 0.299961
maxDeltaT1 = 0.000444926
deltaT = 0.000342147
Time = 0.245552

diagonal:  Solving for rho, Initial residual = 0, Final residual = 0, No Iterations 0
diagonal:  Solving for rhoUx, Initial residual = 0, Final residual = 0, No Iterations 0
smoothSolver:  Solving for Ux, Initial residual = 1.05397e-05, Final residual = 3.54322e-17, No Iterations 1
diagonal:  Solving for rhoE, Initial residual = 0, Final residual = 0, No Iterations 0
smoothSolver:  Solving for e, Initial residual = 2.14848e-05, Final residual = 2.57814e-16, No Iterations 1
ExecutionTime = 0.51 s  ClockTime = 0 s

Courant Number = 0.299961
maxDeltaT1 = 0.000444926
deltaT = 0.000342147
Time = 0.245894

diagonal:  Solving for rho, Initial residual = 0, Final residual = 0, No Iterations 0
diagonal:  Solving for rhoUx, Initial residual = 0, Final residual = 0, No Iterations 0
smoothSolver:  Solving for Ux, Initial residual = 1.04518e-05, Final residual = 3.18605e-17, No Iterations 1
diagonal:  Solving for rhoE, Initial residual = 0, Final residual = 0, No Iterations 0
smoothSolver:  Solving for e, Initial residual = 2.12795e-05, Final residual = 2.50369e-16, No Iterations 1
ExecutionTime = 0.51 s  ClockTime = 0 s

Courant Number = 0.299961
maxDeltaT1 = 0.000444926
deltaT = 0.000342147
Time = 0.246236

diagonal:  Solving for rho, Initial residual = 0, Final residual = 0, No Iterations 0
diagonal:  Solving for rhoUx, Initial residual = 0, Final residual = 0, No Iterations 0
smoothSolver:  Solving for Ux, Initial residual = 1.01778e-05, Final residual = 3.74763e-17, No Iterations 1
diagonal:  Solving for rhoE, Initial residual = 0, Final residual = 0, No Iterations 0
smoothSolver:  Solving for e, Initial residual = 2.07852e-05, Final residual = 2.66392e-16, No Iterations 1
ExecutionTime = 0.51 s  ClockTime = 0 s

Courant Number = 0.299961
maxDeltaT1 = 0.000444927
deltaT = 0.000342147
Time = 0.246579

diagonal:  Solving for rho, Initial residual = 0, Final residual = 0, No Iterations 0
diagonal:  Solving for rhoUx, Initial residual = 0, Final residual = 0, No Iterations 0
smoothSolver:  Solving for Ux, Initial residual = 1.03725e-05, Final residual = 3.06867e-17, No Iterations 1
diagonal:  Solving for rhoE, Initial residual = 0, Final residual = 0, No Iterations 0
smoothSolver:  Solving for e, Initial residual = 2.12432e-05, Final residual = 2.73545e-16, No Iterations 1
ExecutionTime = 0.51 s  ClockTime = 0 s

Courant Number = 0.299961
maxDeltaT1 = 0.000444927
deltaT = 0.000342147
Time = 0.246921

diagonal:  Solving for rho, Initial residual = 0, Final residual = 0, No Iterations 0
diagonal:  Solving for rhoUx, Initial residual = 0, Final residual = 0, No Iterations 0
smoothSolver:  Solving for Ux, Initial residual = 1.05274e-05, Final residual = 3.58501e-17, No Iterations 1
diagonal:  Solving for rhoE, Initial residual = 0, Final residual = 0, No Iterations 0
smoothSolver:  Solving for e, Initial residual = 2.14281e-05, Final residual = 2.57903e-16, No Iterations 1
ExecutionTime = 0.51 s  ClockTime = 0 s

Courant Number = 0.299961
maxDeltaT1 = 0.000444927
deltaT = 0.000342147
Time = 0.247263

diagonal:  Solving for rho, Initial residual = 0, Final residual = 0, No Iterations 0
diagonal:  Solving for rhoUx, Initial residual = 0, Final residual = 0, No Iterations 0
smoothSolver:  Solving for Ux, Initial residual = 1.04738e-05, Final residual = 3.5182e-17, No Iterations 1
diagonal:  Solving for rhoE, Initial residual = 0, Final residual = 0, No Iterations 0
smoothSolver:  Solving for e, Initial residual = 2.12833e-05, Final residual = 2.80501e-16, No Iterations 1
ExecutionTime = 0.51 s  ClockTime = 0 s

Courant Number = 0.299961
maxDeltaT1 = 0.000444927
deltaT = 0.000342147
Time = 0.247605

diagonal:  Solving for rho, Initial residual = 0, Final residual = 0, No Iterations 0
diagonal:  Solving for rhoUx, Initial residual = 0, Final residual = 0, No Iterations 0
smoothSolver:  Solving for Ux, Initial residual = 1.02294e-05, Final residual = 3.0091e-17, No Iterations 1
diagonal:  Solving for rhoE, Initial residual = 0, Final residual = 0, No Iterations 0
smoothSolver:  Solving for e, Initial residual = 2.08421e-05, Final residual = 2.59838e-16, No Iterations 1
ExecutionTime = 0.51 s  ClockTime = 0 s

Courant Number = 0.299961
maxDeltaT1 = 0.000444927
deltaT = 0.000342147
Time = 0.247947

diagonal:  Solving for rho, Initial residual = 0, Final residual = 0, No Iterations 0
diagonal:  Solving for rhoUx, Initial residual = 0, Final residual = 0, No Iterations 0
smoothSolver:  Solving for Ux, Initial residual = 1.03185e-05, Final residual = 3.38499e-17, No Iterations 1
diagonal:  Solving for rhoE, Initial residual = 0, Final residual = 0, No Iterations 0
smoothSolver:  Solving for e, Initial residual = 2.11425e-05, Final residual = 2.57278e-16, No Iterations 1
ExecutionTime = 0.51 s  ClockTime = 0 s

Courant Number = 0.299961
maxDeltaT1 = 0.000444927
deltaT = 0.000342147
Time = 0.248289

diagonal:  Solving for rho, Initial residual = 0, Final residual = 0, No Iterations 0
diagonal:  Solving for rhoUx, Initial residual = 0, Final residual = 0, No Iterations 0
smoothSolver:  Solving for Ux, Initial residual = 1.05096e-05, Final residual = 3.29915e-17, No Iterations 1
diagonal:  Solving for rhoE, Initial residual = 0, Final residual = 0, No Iterations 0
smoothSolver:  Solving for e, Initial residual = 2.13767e-05, Final residual = 2.70064e-16, No Iterations 1
ExecutionTime = 0.51 s  ClockTime = 0 s

Courant Number = 0.299961
maxDeltaT1 = 0.000444927
deltaT = 0.000342147
Time = 0.248631

diagonal:  Solving for rho, Initial residual = 0, Final residual = 0, No Iterations 0
diagonal:  Solving for rhoUx, Initial residual = 0, Final residual = 0, No Iterations 0
smoothSolver:  Solving for Ux, Initial residual = 1.04908e-05, Final residual = 3.23029e-17, No Iterations 1
diagonal:  Solving for rhoE, Initial residual = 0, Final residual = 0, No Iterations 0
smoothSolver:  Solving for e, Initial residual = 2.12791e-05, Final residual = 2.62735e-16, No Iterations 1
ExecutionTime = 0.51 s  ClockTime = 0 s

Courant Number = 0.299961
maxDeltaT1 = 0.000444927
deltaT = 0.000342147
Time = 0.248974

diagonal:  Solving for rho, Initial residual = 0, Final residual = 0, No Iterations 0
diagonal:  Solving for rhoUx, Initial residual = 0, Final residual = 0, No Iterations 0
smoothSolver:  Solving for Ux, Initial residual = 1.0277e-05, Final residual = 3.47432e-17, No Iterations 1
diagonal:  Solving for rhoE, Initial residual = 0, Final residual = 0, No Iterations 0
smoothSolver:  Solving for e, Initial residual = 2.08766e-05, Final residual = 2.73798e-16, No Iterations 1
ExecutionTime = 0.51 s  ClockTime = 0 s

Courant Number = 0.299961
maxDeltaT1 = 0.000444927
deltaT = 0.000342147
Time = 0.249316

diagonal:  Solving for rho, Initial residual = 0, Final residual = 0, No Iterations 0
diagonal:  Solving for rhoUx, Initial residual = 0, Final residual = 0, No Iterations 0
smoothSolver:  Solving for Ux, Initial residual = 1.02589e-05, Final residual = 3.40169e-17, No Iterations 1
diagonal:  Solving for rhoE, Initial residual = 0, Final residual = 0, No Iterations 0
smoothSolver:  Solving for e, Initial residual = 2.10059e-05, Final residual = 2.60974e-16, No Iterations 1
ExecutionTime = 0.51 s  ClockTime = 0 s

Courant Number = 0.299961
maxDeltaT1 = 0.000444927
deltaT = 0.000342147
Time = 0.249658

diagonal:  Solving for rho, Initial residual = 0, Final residual = 0, No Iterations 0
diagonal:  Solving for rhoUx, Initial residual = 0, Final residual = 0, No Iterations 0
smoothSolver:  Solving for Ux, Initial residual = 1.04864e-05, Final residual = 3.46792e-17, No Iterations 1
diagonal:  Solving for rhoE, Initial residual = 0, Final residual = 0, No Iterations 0
smoothSolver:  Solving for e, Initial residual = 2.13035e-05, Final residual = 2.69743e-16, No Iterations 1
ExecutionTime = 0.51 s  ClockTime = 0 s

Courant Number = 0.299961
maxDeltaT1 = 0.000444927
deltaT = 0.000342147
Time = 0.25

diagonal:  Solving for rho, Initial residual = 0, Final residual = 0, No Iterations 0
diagonal:  Solving for rhoUx, Initial residual = 0, Final residual = 0, No Iterations 0
smoothSolver:  Solving for Ux, Initial residual = 1.05029e-05, Final residual = 3.32844e-17, No Iterations 1
diagonal:  Solving for rhoE, Initial residual = 0, Final residual = 0, No Iterations 0
smoothSolver:  Solving for e, Initial residual = 2.12676e-05, Final residual = 2.61836e-16, No Iterations 1
ExecutionTime = 0.51 s  ClockTime = 0 s

End

