/*---------------------------------------------------------------------------*\
| =========                 |                                                 |
| \\      /  F ield         | OpenFOAM: The Open Source CFD Toolbox           |
|  \\    /   O peration     | Version:  2406                                  |
|   \\  /    A nd           | Website:  www.openfoam.com                      |
|    \\/     M anipulation  |                                                 |
\*---------------------------------------------------------------------------*/
Build  : _9bfe8264-20241212 OPENFOAM=2406 patch=241212 version=2406
Arch   : "LSB;label=32;scalar=64"
Exec   : QGDFoam
Date   : Jan 09 2025
Time   : 11:49:13
Host   : fv-az1344-607
PID    : 9013
I/O    : uncollated
Case   : /home/runner/work/VnV/VnV/SodProblem/QGDFoam/200CPL
nProcs : 1
trapFpe: Floating point exception trapping enabled (FOAM_SIGFPE).
fileModificationChecking : Monitoring run-time modified files using timeStampMaster (fileModificationSkew 5, maxFileModificationPolls 20)
allowSystemOperations : Allowing user-supplied system call operations

// * * * * * * * * * * * * * * * * * * * * * * * * * * * * * * * * * * * * * //
Create time

Create mesh for time = 0

Reading thermophysical properties

Selecting thermodynamics package 
{
    type            hePsiQGDThermo;
    mixture         pureMixture;
    transport       const;
    thermo          hConst;
    equationOfState perfectGas;
    specie          specie;
    energy          sensibleInternalEnergy;
}

Selecting QGD coeffs evaluation approach type constScPrModel1
Thermo corrected
Creating turbulence model

Selecting turbulence model type laminar
Selecting laminar stress model Stokes
Selecting finite volume surface calculus stencil type reduced
No finite volume options present

Starting time loop

Courant Number = 0.0236653
maxDeltaT1 = 0.000950761
deltaT = 0.000120019
Time = 0.000120019

diagonal:  Solving for rho, Initial residual = 0, Final residual = 0, No Iterations 0
diagonal:  Solving for rhoUx, Initial residual = 0, Final residual = 0, No Iterations 0
smoothSolver:  Solving for Ux, Initial residual = 0.00204177, Final residual = 1.32053e-17, No Iterations 1
diagonal:  Solving for rhoE, Initial residual = 0, Final residual = 0, No Iterations 0
smoothSolver:  Solving for e, Initial residual = 3.78024e-05, Final residual = 3.08864e-16, No Iterations 1
ExecutionTime = 0 s  ClockTime = 0 s

Courant Number = 0.0285208
maxDeltaT1 = 0.000950761
deltaT = 0.000144023
Time = 0.000264042

diagonal:  Solving for rho, Initial residual = 0, Final residual = 0, No Iterations 0
diagonal:  Solving for rhoUx, Initial residual = 0, Final residual = 0, No Iterations 0
smoothSolver:  Solving for Ux, Initial residual = 0.00256746, Final residual = 6.71484e-18, No Iterations 1
diagonal:  Solving for rhoE, Initial residual = 0, Final residual = 0, No Iterations 0
smoothSolver:  Solving for e, Initial residual = 3.93796e-05, Final residual = 2.73486e-16, No Iterations 1
ExecutionTime = 0 s  ClockTime = 0 s

Courant Number = 0.0354575
maxDeltaT1 = 0.000950761
deltaT = 0.000172828
Time = 0.00043687

diagonal:  Solving for rho, Initial residual = 0, Final residual = 0, No Iterations 0
diagonal:  Solving for rhoUx, Initial residual = 0, Final residual = 0, No Iterations 0
smoothSolver:  Solving for Ux, Initial residual = 0.00307219, Final residual = 1.09553e-17, No Iterations 1
diagonal:  Solving for rhoE, Initial residual = 0, Final residual = 0, No Iterations 0
smoothSolver:  Solving for e, Initial residual = 4.04388e-05, Final residual = 2.74532e-16, No Iterations 1
ExecutionTime = 0 s  ClockTime = 0 s

Courant Number = 0.0446587
maxDeltaT1 = 0.000950761
deltaT = 0.000207451
Time = 0.000644321

diagonal:  Solving for rho, Initial residual = 0, Final residual = 0, No Iterations 0
diagonal:  Solving for rhoUx, Initial residual = 0, Final residual = 0, No Iterations 0
smoothSolver:  Solving for Ux, Initial residual = 0.00360874, Final residual = 1.56472e-17, No Iterations 1
diagonal:  Solving for rhoE, Initial residual = 0, Final residual = 0, No Iterations 0
smoothSolver:  Solving for e, Initial residual = 4.10169e-05, Final residual = 3.14129e-16, No Iterations 1
ExecutionTime = 0 s  ClockTime = 0 s

Courant Number = 0.0562605
maxDeltaT1 = 0.000950761
deltaT = 0.000248858
Time = 0.000893179

diagonal:  Solving for rho, Initial residual = 0, Final residual = 0, No Iterations 0
diagonal:  Solving for rhoUx, Initial residual = 0, Final residual = 0, No Iterations 0
smoothSolver:  Solving for Ux, Initial residual = 0.00415936, Final residual = 8.67072e-18, No Iterations 1
diagonal:  Solving for rhoE, Initial residual = 0, Final residual = 0, No Iterations 0
smoothSolver:  Solving for e, Initial residual = 4.12818e-05, Final residual = 2.85347e-16, No Iterations 1
ExecutionTime = 0.01 s  ClockTime = 0 s

Courant Number = 0.0707633
maxDeltaT1 = 0.000950761
deltaT = 0.000298689
Time = 0.00119187

diagonal:  Solving for rho, Initial residual = 0, Final residual = 0, No Iterations 0
diagonal:  Solving for rhoUx, Initial residual = 0, Final residual = 0, No Iterations 0
smoothSolver:  Solving for Ux, Initial residual = 0.0047231, Final residual = 8.95868e-18, No Iterations 1
diagonal:  Solving for rhoE, Initial residual = 0, Final residual = 0, No Iterations 0
smoothSolver:  Solving for e, Initial residual = 4.16715e-05, Final residual = 2.70215e-16, No Iterations 1
ExecutionTime = 0.01 s  ClockTime = 0 s

Courant Number = 0.0888812
maxDeltaT1 = 0.000950761
deltaT = 0.000358513
Time = 0.00155038

diagonal:  Solving for rho, Initial residual = 0, Final residual = 0, No Iterations 0
diagonal:  Solving for rhoUx, Initial residual = 0, Final residual = 0, No Iterations 0
smoothSolver:  Solving for Ux, Initial residual = 0.00527142, Final residual = 8.06466e-18, No Iterations 1
diagonal:  Solving for rhoE, Initial residual = 0, Final residual = 0, No Iterations 0
smoothSolver:  Solving for e, Initial residual = 4.28177e-05, Final residual = 2.99924e-16, No Iterations 1
ExecutionTime = 0.01 s  ClockTime = 0 s

Courant Number = 0.111318
maxDeltaT1 = 0.000950761
deltaT = 0.000429844
Time = 0.00198022

diagonal:  Solving for rho, Initial residual = 0, Final residual = 0, No Iterations 0
diagonal:  Solving for rhoUx, Initial residual = 0, Final residual = 0, No Iterations 0
smoothSolver:  Solving for Ux, Initial residual = 0.00576642, Final residual = 6.47899e-18, No Iterations 1
diagonal:  Solving for rhoE, Initial residual = 0, Final residual = 0, No Iterations 0
smoothSolver:  Solving for e, Initial residual = 5.07204e-05, Final residual = 3.07936e-16, No Iterations 1
ExecutionTime = 0.01 s  ClockTime = 0 s

Courant Number = 0.138721
maxDeltaT1 = 0.000950761
deltaT = 0.000515634
Time = 0.00249586

diagonal:  Solving for rho, Initial residual = 0, Final residual = 0, No Iterations 0
diagonal:  Solving for rhoUx, Initial residual = 0, Final residual = 0, No Iterations 0
smoothSolver:  Solving for Ux, Initial residual = 0.0061785, Final residual = 6.69156e-18, No Iterations 1
diagonal:  Solving for rhoE, Initial residual = 0, Final residual = 0, No Iterations 0
smoothSolver:  Solving for e, Initial residual = 8.53347e-05, Final residual = 2.78138e-16, No Iterations 1
ExecutionTime = 0.01 s  ClockTime = 0 s

Courant Number = 0.177106
maxDeltaT1 = 0.000950761
deltaT = 0.000603669
Time = 0.00309953

diagonal:  Solving for rho, Initial residual = 0, Final residual = 0, No Iterations 0
diagonal:  Solving for rhoUx, Initial residual = 0, Final residual = 0, No Iterations 0
smoothSolver:  Solving for Ux, Initial residual = 0.00632621, Final residual = 1.99555e-17, No Iterations 1
diagonal:  Solving for rhoE, Initial residual = 0, Final residual = 0, No Iterations 0
smoothSolver:  Solving for e, Initial residual = 0.000138744, Final residual = 2.85645e-16, No Iterations 1
ExecutionTime = 0.01 s  ClockTime = 0 s

Courant Number = 0.219899
maxDeltaT1 = 0.000950761
deltaT = 0.000685835
Time = 0.00378536

diagonal:  Solving for rho, Initial residual = 0, Final residual = 0, No Iterations 0
diagonal:  Solving for rhoUx, Initial residual = 0, Final residual = 0, No Iterations 0
smoothSolver:  Solving for Ux, Initial residual = 0.00614229, Final residual = 6.33105e-18, No Iterations 1
diagonal:  Solving for rhoE, Initial residual = 0, Final residual = 0, No Iterations 0
smoothSolver:  Solving for e, Initial residual = 0.000202468, Final residual = 2.59191e-16, No Iterations 1
ExecutionTime = 0.01 s  ClockTime = 0 s

Courant Number = 0.262735
maxDeltaT1 = 0.000950761
deltaT = 0.000764642
Time = 0.00455

diagonal:  Solving for rho, Initial residual = 0, Final residual = 0, No Iterations 0
diagonal:  Solving for rhoUx, Initial residual = 0, Final residual = 0, No Iterations 0
smoothSolver:  Solving for Ux, Initial residual = 0.00574036, Final residual = 1.89188e-17, No Iterations 1
diagonal:  Solving for rhoE, Initial residual = 0, Final residual = 0, No Iterations 0
smoothSolver:  Solving for e, Initial residual = 0.00026892, Final residual = 2.97375e-16, No Iterations 1
ExecutionTime = 0.01 s  ClockTime = 0 s

Courant Number = 0.304542
maxDeltaT1 = 0.000950761
deltaT = 0.000752914
Time = 0.00530292

diagonal:  Solving for rho, Initial residual = 0, Final residual = 0, No Iterations 0
diagonal:  Solving for rhoUx, Initial residual = 0, Final residual = 0, No Iterations 0
smoothSolver:  Solving for Ux, Initial residual = 0.00473671, Final residual = 1.81632e-17, No Iterations 1
diagonal:  Solving for rhoE, Initial residual = 0, Final residual = 0, No Iterations 0
smoothSolver:  Solving for e, Initial residual = 0.000292311, Final residual = 3.29283e-16, No Iterations 1
ExecutionTime = 0.01 s  ClockTime = 0 s

Courant Number = 0.307155
maxDeltaT1 = 0.000950761
deltaT = 0.000734826
Time = 0.00603774

diagonal:  Solving for rho, Initial residual = 0, Final residual = 0, No Iterations 0
diagonal:  Solving for rhoUx, Initial residual = 0, Final residual = 0, No Iterations 0
smoothSolver:  Solving for Ux, Initial residual = 0.00390202, Final residual = 1.28197e-17, No Iterations 1
diagonal:  Solving for rhoE, Initial residual = 0, Final residual = 0, No Iterations 0
smoothSolver:  Solving for e, Initial residual = 0.000314145, Final residual = 2.91142e-16, No Iterations 1
ExecutionTime = 0.01 s  ClockTime = 0 s

Courant Number = 0.303793
maxDeltaT1 = 0.000950761
deltaT = 0.000726078
Time = 0.00676382

diagonal:  Solving for rho, Initial residual = 0, Final residual = 0, No Iterations 0
diagonal:  Solving for rhoUx, Initial residual = 0, Final residual = 0, No Iterations 0
smoothSolver:  Solving for Ux, Initial residual = 0.00328762, Final residual = 1.92173e-17, No Iterations 1
diagonal:  Solving for rhoE, Initial residual = 0, Final residual = 0, No Iterations 0
smoothSolver:  Solving for e, Initial residual = 0.000325623, Final residual = 3.25353e-16, No Iterations 1
ExecutionTime = 0.01 s  ClockTime = 0 s

Courant Number = 0.302113
maxDeltaT1 = 0.000950761
deltaT = 0.000721769
Time = 0.00748559

diagonal:  Solving for rho, Initial residual = 0, Final residual = 0, No Iterations 0
diagonal:  Solving for rhoUx, Initial residual = 0, Final residual = 0, No Iterations 0
smoothSolver:  Solving for Ux, Initial residual = 0.00286079, Final residual = 1.89031e-17, No Iterations 1
diagonal:  Solving for rhoE, Initial residual = 0, Final residual = 0, No Iterations 0
smoothSolver:  Solving for e, Initial residual = 0.000326011, Final residual = 2.78007e-16, No Iterations 1
ExecutionTime = 0.01 s  ClockTime = 0 s

Courant Number = 0.300959
maxDeltaT1 = 0.000950761
deltaT = 0.000719627
Time = 0.00820522

diagonal:  Solving for rho, Initial residual = 0, Final residual = 0, No Iterations 0
diagonal:  Solving for rhoUx, Initial residual = 0, Final residual = 0, No Iterations 0
smoothSolver:  Solving for Ux, Initial residual = 0.00253622, Final residual = 7.43932e-18, No Iterations 1
diagonal:  Solving for rhoE, Initial residual = 0, Final residual = 0, No Iterations 0
smoothSolver:  Solving for e, Initial residual = 0.000318954, Final residual = 2.82648e-16, No Iterations 1
ExecutionTime = 0.01 s  ClockTime = 0 s

Courant Number = 0.299933
maxDeltaT1 = 0.000950761
deltaT = 0.000719627
Time = 0.00892485

diagonal:  Solving for rho, Initial residual = 0, Final residual = 0, No Iterations 0
diagonal:  Solving for rhoUx, Initial residual = 0, Final residual = 0, No Iterations 0
smoothSolver:  Solving for Ux, Initial residual = 0.00225643, Final residual = 1.13196e-17, No Iterations 1
diagonal:  Solving for rhoE, Initial residual = 0, Final residual = 0, No Iterations 0
smoothSolver:  Solving for e, Initial residual = 0.000318431, Final residual = 2.78921e-16, No Iterations 1
ExecutionTime = 0.01 s  ClockTime = 0 s

Courant Number = 0.29937
maxDeltaT1 = 0.000945799
deltaT = 0.000721782
Time = 0.00964663

diagonal:  Solving for rho, Initial residual = 0, Final residual = 0, No Iterations 0
diagonal:  Solving for rhoUx, Initial residual = 0, Final residual = 0, No Iterations 0
smoothSolver:  Solving for Ux, Initial residual = 0.0020187, Final residual = 1.45238e-17, No Iterations 1
diagonal:  Solving for rhoE, Initial residual = 0, Final residual = 0, No Iterations 0
smoothSolver:  Solving for e, Initial residual = 0.000313565, Final residual = 2.78229e-16, No Iterations 1
ExecutionTime = 0.01 s  ClockTime = 0 s

Courant Number = 0.299481
maxDeltaT1 = 0.000940629
deltaT = 0.000723956
Time = 0.0103706

diagonal:  Solving for rho, Initial residual = 0, Final residual = 0, No Iterations 0
diagonal:  Solving for rhoUx, Initial residual = 0, Final residual = 0, No Iterations 0
smoothSolver:  Solving for Ux, Initial residual = 0.00184505, Final residual = 1.21142e-17, No Iterations 1
diagonal:  Solving for rhoE, Initial residual = 0, Final residual = 0, No Iterations 0
smoothSolver:  Solving for e, Initial residual = 0.000302953, Final residual = 2.74256e-16, No Iterations 1
ExecutionTime = 0.01 s  ClockTime = 0 s

Courant Number = 0.299495
maxDeltaT1 = 0.000938544
deltaT = 0.00072615
Time = 0.0110967

diagonal:  Solving for rho, Initial residual = 0, Final residual = 0, No Iterations 0
diagonal:  Solving for rhoUx, Initial residual = 0, Final residual = 0, No Iterations 0
smoothSolver:  Solving for Ux, Initial residual = 0.00167922, Final residual = 7.25028e-18, No Iterations 1
diagonal:  Solving for rhoE, Initial residual = 0, Final residual = 0, No Iterations 0
smoothSolver:  Solving for e, Initial residual = 0.000288703, Final residual = 3.03089e-16, No Iterations 1
ExecutionTime = 0.01 s  ClockTime = 0 s

Courant Number = 0.299481
maxDeltaT1 = 0.000939131
deltaT = 0.000728364
Time = 0.0118251

diagonal:  Solving for rho, Initial residual = 0, Final residual = 0, No Iterations 0
diagonal:  Solving for rhoUx, Initial residual = 0, Final residual = 0, No Iterations 0
smoothSolver:  Solving for Ux, Initial residual = 0.00151942, Final residual = 9.79572e-18, No Iterations 1
diagonal:  Solving for rhoE, Initial residual = 0, Final residual = 0, No Iterations 0
smoothSolver:  Solving for e, Initial residual = 0.000283331, Final residual = 2.70365e-16, No Iterations 1
ExecutionTime = 0.02 s  ClockTime = 0 s

Courant Number = 0.299478
maxDeltaT1 = 0.000937789
deltaT = 0.000730598
Time = 0.0125557

diagonal:  Solving for rho, Initial residual = 0, Final residual = 0, No Iterations 0
diagonal:  Solving for rhoUx, Initial residual = 0, Final residual = 0, No Iterations 0
smoothSolver:  Solving for Ux, Initial residual = 0.00138809, Final residual = 1.70491e-17, No Iterations 1
diagonal:  Solving for rhoE, Initial residual = 0, Final residual = 0, No Iterations 0
smoothSolver:  Solving for e, Initial residual = 0.000282624, Final residual = 2.87077e-16, No Iterations 1
ExecutionTime = 0.02 s  ClockTime = 0 s

Courant Number = 0.299595
maxDeltaT1 = 0.000931843
deltaT = 0.000730598
Time = 0.0132863

diagonal:  Solving for rho, Initial residual = 0, Final residual = 0, No Iterations 0
diagonal:  Solving for rhoUx, Initial residual = 0, Final residual = 0, No Iterations 0
smoothSolver:  Solving for Ux, Initial residual = 0.00127531, Final residual = 1.47345e-17, No Iterations 1
diagonal:  Solving for rhoE, Initial residual = 0, Final residual = 0, No Iterations 0
smoothSolver:  Solving for e, Initial residual = 0.000275942, Final residual = 2.9934e-16, No Iterations 1
ExecutionTime = 0.02 s  ClockTime = 0 s

Courant Number = 0.300939
maxDeltaT1 = 0.000928534
deltaT = 0.00072835
Time = 0.0140146

diagonal:  Solving for rho, Initial residual = 0, Final residual = 0, No Iterations 0
diagonal:  Solving for rhoUx, Initial residual = 0, Final residual = 0, No Iterations 0
smoothSolver:  Solving for Ux, Initial residual = 0.00116237, Final residual = 1.65527e-17, No Iterations 1
diagonal:  Solving for rhoE, Initial residual = 0, Final residual = 0, No Iterations 0
smoothSolver:  Solving for e, Initial residual = 0.000264824, Final residual = 2.73095e-16, No Iterations 1
ExecutionTime = 0.02 s  ClockTime = 0 s

Courant Number = 0.300598
maxDeltaT1 = 0.000927546
deltaT = 0.000726109
Time = 0.0147408

diagonal:  Solving for rho, Initial residual = 0, Final residual = 0, No Iterations 0
diagonal:  Solving for rhoUx, Initial residual = 0, Final residual = 0, No Iterations 0
smoothSolver:  Solving for Ux, Initial residual = 0.00105489, Final residual = 1.27228e-17, No Iterations 1
diagonal:  Solving for rhoE, Initial residual = 0, Final residual = 0, No Iterations 0
smoothSolver:  Solving for e, Initial residual = 0.00026028, Final residual = 3.25779e-16, No Iterations 1
ExecutionTime = 0.02 s  ClockTime = 0 s

Courant Number = 0.299731
maxDeltaT1 = 0.000928497
deltaT = 0.000726109
Time = 0.0154669

diagonal:  Solving for rho, Initial residual = 0, Final residual = 0, No Iterations 0
diagonal:  Solving for rhoUx, Initial residual = 0, Final residual = 0, No Iterations 0
smoothSolver:  Solving for Ux, Initial residual = 0.000979486, Final residual = 1.41318e-17, No Iterations 1
diagonal:  Solving for rhoE, Initial residual = 0, Final residual = 0, No Iterations 0
smoothSolver:  Solving for e, Initial residual = 0.000253508, Final residual = 2.6821e-16, No Iterations 1
ExecutionTime = 0.02 s  ClockTime = 0 s

Courant Number = 0.299428
maxDeltaT1 = 0.000926521
deltaT = 0.000728364
Time = 0.0161952

diagonal:  Solving for rho, Initial residual = 0, Final residual = 0, No Iterations 0
diagonal:  Solving for rhoUx, Initial residual = 0, Final residual = 0, No Iterations 0
smoothSolver:  Solving for Ux, Initial residual = 0.000911351, Final residual = 1.66632e-17, No Iterations 1
diagonal:  Solving for rhoE, Initial residual = 0, Final residual = 0, No Iterations 0
smoothSolver:  Solving for e, Initial residual = 0.00024718, Final residual = 3.06371e-16, No Iterations 1
ExecutionTime = 0.02 s  ClockTime = 0 s

Courant Number = 0.30197
maxDeltaT1 = 0.000922438
deltaT = 0.000723854
Time = 0.0169191

diagonal:  Solving for rho, Initial residual = 0, Final residual = 0, No Iterations 0
diagonal:  Solving for rhoUx, Initial residual = 0, Final residual = 0, No Iterations 0
smoothSolver:  Solving for Ux, Initial residual = 0.000838058, Final residual = 1.91485e-17, No Iterations 1
diagonal:  Solving for rhoE, Initial residual = 0, Final residual = 0, No Iterations 0
smoothSolver:  Solving for e, Initial residual = 0.000239591, Final residual = 2.90349e-16, No Iterations 1
ExecutionTime = 0.02 s  ClockTime = 0 s

Courant Number = 0.301066
maxDeltaT1 = 0.000920349
deltaT = 0.000721613
Time = 0.0176407

diagonal:  Solving for rho, Initial residual = 0, Final residual = 0, No Iterations 0
diagonal:  Solving for rhoUx, Initial residual = 0, Final residual = 0, No Iterations 0
smoothSolver:  Solving for Ux, Initial residual = 0.000772771, Final residual = 1.63707e-17, No Iterations 1
diagonal:  Solving for rhoE, Initial residual = 0, Final residual = 0, No Iterations 0
smoothSolver:  Solving for e, Initial residual = 0.000238032, Final residual = 2.93167e-16, No Iterations 1
ExecutionTime = 0.02 s  ClockTime = 0 s

Courant Number = 0.30057
maxDeltaT1 = 0.000919944
deltaT = 0.000719379
Time = 0.0183601

diagonal:  Solving for rho, Initial residual = 0, Final residual = 0, No Iterations 0
diagonal:  Solving for rhoUx, Initial residual = 0, Final residual = 0, No Iterations 0
smoothSolver:  Solving for Ux, Initial residual = 0.00072593, Final residual = 1.59048e-17, No Iterations 1
diagonal:  Solving for rhoE, Initial residual = 0, Final residual = 0, No Iterations 0
smoothSolver:  Solving for e, Initial residual = 0.000233552, Final residual = 2.78474e-16, No Iterations 1
ExecutionTime = 0.02 s  ClockTime = 0 s

Courant Number = 0.299687
maxDeltaT1 = 0.000920934
deltaT = 0.000719379
Time = 0.0190794

diagonal:  Solving for rho, Initial residual = 0, Final residual = 0, No Iterations 0
diagonal:  Solving for rhoUx, Initial residual = 0, Final residual = 0, No Iterations 0
smoothSolver:  Solving for Ux, Initial residual = 0.000680139, Final residual = 1.91748e-17, No Iterations 1
diagonal:  Solving for rhoE, Initial residual = 0, Final residual = 0, No Iterations 0
smoothSolver:  Solving for e, Initial residual = 0.000226984, Final residual = 2.88059e-16, No Iterations 1
ExecutionTime = 0.02 s  ClockTime = 0 s

Courant Number = 0.299474
maxDeltaT1 = 0.000918765
deltaT = 0.000721627
Time = 0.0198011

diagonal:  Solving for rho, Initial residual = 0, Final residual = 0, No Iterations 0
diagonal:  Solving for rhoUx, Initial residual = 0, Final residual = 0, No Iterations 0
smoothSolver:  Solving for Ux, Initial residual = 0.00063497, Final residual = 1.19152e-17, No Iterations 1
diagonal:  Solving for rhoE, Initial residual = 0, Final residual = 0, No Iterations 0
smoothSolver:  Solving for e, Initial residual = 0.000219419, Final residual = 2.90173e-16, No Iterations 1
ExecutionTime = 0.02 s  ClockTime = 0 s

Courant Number = 0.301709
maxDeltaT1 = 0.00091589
deltaT = 0.000717131
Time = 0.0205182

diagonal:  Solving for rho, Initial residual = 0, Final residual = 0, No Iterations 0
diagonal:  Solving for rhoUx, Initial residual = 0, Final residual = 0, No Iterations 0
smoothSolver:  Solving for Ux, Initial residual = 0.000590872, Final residual = 2.76661e-17, No Iterations 1
diagonal:  Solving for rhoE, Initial residual = 0, Final residual = 0, No Iterations 0
smoothSolver:  Solving for e, Initial residual = 0.000215491, Final residual = 2.98923e-16, No Iterations 1
ExecutionTime = 0.02 s  ClockTime = 0 s

Courant Number = 0.300603
maxDeltaT1 = 0.000914497
deltaT = 0.000714897
Time = 0.0212331

diagonal:  Solving for rho, Initial residual = 0, Final residual = 0, No Iterations 0
diagonal:  Solving for rhoUx, Initial residual = 0, Final residual = 0, No Iterations 0
smoothSolver:  Solving for Ux, Initial residual = 0.000558383, Final residual = 1.54087e-17, No Iterations 1
diagonal:  Solving for rhoE, Initial residual = 0, Final residual = 0, No Iterations 0
smoothSolver:  Solving for e, Initial residual = 0.000211754, Final residual = 2.7176e-16, No Iterations 1
ExecutionTime = 0.02 s  ClockTime = 0 s

Courant Number = 0.300045
maxDeltaT1 = 0.000914341
deltaT = 0.000714897
Time = 0.021948

diagonal:  Solving for rho, Initial residual = 0, Final residual = 0, No Iterations 0
diagonal:  Solving for rhoUx, Initial residual = 0, Final residual = 0, No Iterations 0
smoothSolver:  Solving for Ux, Initial residual = 0.000525459, Final residual = 1.2979e-17, No Iterations 1
diagonal:  Solving for rhoE, Initial residual = 0, Final residual = 0, No Iterations 0
smoothSolver:  Solving for e, Initial residual = 0.000208887, Final residual = 2.86379e-16, No Iterations 1
ExecutionTime = 0.02 s  ClockTime = 0 s

Courant Number = 0.300118
maxDeltaT1 = 0.000915217
deltaT = 0.000714897
Time = 0.0226629

diagonal:  Solving for rho, Initial residual = 0, Final residual = 0, No Iterations 0
diagonal:  Solving for rhoUx, Initial residual = 0, Final residual = 0, No Iterations 0
smoothSolver:  Solving for Ux, Initial residual = 0.000491044, Final residual = 1.35052e-17, No Iterations 1
diagonal:  Solving for rhoE, Initial residual = 0, Final residual = 0, No Iterations 0
smoothSolver:  Solving for e, Initial residual = 0.000204315, Final residual = 2.70837e-16, No Iterations 1
ExecutionTime = 0.02 s  ClockTime = 0 s

Courant Number = 0.299949
maxDeltaT1 = 0.000913222
deltaT = 0.000714897
Time = 0.0233778

diagonal:  Solving for rho, Initial residual = 0, Final residual = 0, No Iterations 0
diagonal:  Solving for rhoUx, Initial residual = 0, Final residual = 0, No Iterations 0
smoothSolver:  Solving for Ux, Initial residual = 0.00046426, Final residual = 1.5926e-17, No Iterations 1
diagonal:  Solving for rhoE, Initial residual = 0, Final residual = 0, No Iterations 0
smoothSolver:  Solving for e, Initial residual = 0.00020358, Final residual = 2.80543e-16, No Iterations 1
ExecutionTime = 0.02 s  ClockTime = 0 s

Courant Number = 0.300883
maxDeltaT1 = 0.000911117
deltaT = 0.000712648
Time = 0.0240904

diagonal:  Solving for rho, Initial residual = 0, Final residual = 0, No Iterations 0
diagonal:  Solving for rhoUx, Initial residual = 0, Final residual = 0, No Iterations 0
smoothSolver:  Solving for Ux, Initial residual = 0.000440464, Final residual = 1.5481e-17, No Iterations 1
diagonal:  Solving for rhoE, Initial residual = 0, Final residual = 0, No Iterations 0
smoothSolver:  Solving for e, Initial residual = 0.000200071, Final residual = 2.88435e-16, No Iterations 1
ExecutionTime = 0.02 s  ClockTime = 0 s

Courant Number = 0.300605
maxDeltaT1 = 0.000910117
deltaT = 0.000710407
Time = 0.0248008

diagonal:  Solving for rho, Initial residual = 0, Final residual = 0, No Iterations 0
diagonal:  Solving for rhoUx, Initial residual = 0, Final residual = 0, No Iterations 0
smoothSolver:  Solving for Ux, Initial residual = 0.000415052, Final residual = 1.35096e-17, No Iterations 1
diagonal:  Solving for rhoE, Initial residual = 0, Final residual = 0, No Iterations 0
smoothSolver:  Solving for e, Initial residual = 0.000194554, Final residual = 3.02659e-16, No Iterations 1
ExecutionTime = 0.02 s  ClockTime = 0 s

Courant Number = 0.300015
maxDeltaT1 = 0.000910047
deltaT = 0.000710407
Time = 0.0255113

diagonal:  Solving for rho, Initial residual = 0, Final residual = 0, No Iterations 0
diagonal:  Solving for rhoUx, Initial residual = 0, Final residual = 0, No Iterations 0
smoothSolver:  Solving for Ux, Initial residual = 0.000390046, Final residual = 1.97098e-17, No Iterations 1
diagonal:  Solving for rhoE, Initial residual = 0, Final residual = 0, No Iterations 0
smoothSolver:  Solving for e, Initial residual = 0.000188517, Final residual = 2.76316e-16, No Iterations 1
ExecutionTime = 0.03 s  ClockTime = 0 s

Courant Number = 0.300119
maxDeltaT1 = 0.000910761
deltaT = 0.000710407
Time = 0.0262217

diagonal:  Solving for rho, Initial residual = 0, Final residual = 0, No Iterations 0
diagonal:  Solving for rhoUx, Initial residual = 0, Final residual = 0, No Iterations 0
smoothSolver:  Solving for Ux, Initial residual = 0.000373473, Final residual = 1.30898e-17, No Iterations 1
diagonal:  Solving for rhoE, Initial residual = 0, Final residual = 0, No Iterations 0
smoothSolver:  Solving for e, Initial residual = 0.000186398, Final residual = 3.10929e-16, No Iterations 1
ExecutionTime = 0.03 s  ClockTime = 0 s

Courant Number = 0.300017
maxDeltaT1 = 0.000909107
deltaT = 0.000710407
Time = 0.0269321

diagonal:  Solving for rho, Initial residual = 0, Final residual = 0, No Iterations 0
diagonal:  Solving for rhoUx, Initial residual = 0, Final residual = 0, No Iterations 0
smoothSolver:  Solving for Ux, Initial residual = 0.000358088, Final residual = 1.72977e-17, No Iterations 1
diagonal:  Solving for rhoE, Initial residual = 0, Final residual = 0, No Iterations 0
smoothSolver:  Solving for e, Initial residual = 0.000185136, Final residual = 2.81887e-16, No Iterations 1
ExecutionTime = 0.03 s  ClockTime = 0 s

Courant Number = 0.300619
maxDeltaT1 = 0.000907493
deltaT = 0.000708152
Time = 0.0276402

diagonal:  Solving for rho, Initial residual = 0, Final residual = 0, No Iterations 0
diagonal:  Solving for rhoUx, Initial residual = 0, Final residual = 0, No Iterations 0
smoothSolver:  Solving for Ux, Initial residual = 0.000339671, Final residual = 1.80822e-17, No Iterations 1
diagonal:  Solving for rhoE, Initial residual = 0, Final residual = 0, No Iterations 0
smoothSolver:  Solving for e, Initial residual = 0.000181437, Final residual = 2.96322e-16, No Iterations 1
ExecutionTime = 0.03 s  ClockTime = 0 s

Courant Number = 0.300262
maxDeltaT1 = 0.000906721
deltaT = 0.000708152
Time = 0.0283484

diagonal:  Solving for rho, Initial residual = 0, Final residual = 0, No Iterations 0
diagonal:  Solving for rhoUx, Initial residual = 0, Final residual = 0, No Iterations 0
smoothSolver:  Solving for Ux, Initial residual = 0.000320864, Final residual = 2.01572e-17, No Iterations 1
diagonal:  Solving for rhoE, Initial residual = 0, Final residual = 0, No Iterations 0
smoothSolver:  Solving for e, Initial residual = 0.000177419, Final residual = 2.68983e-16, No Iterations 1
ExecutionTime = 0.03 s  ClockTime = 0 s

Courant Number = 0.300607
maxDeltaT1 = 0.00090666
deltaT = 0.000705897
Time = 0.0290543

diagonal:  Solving for rho, Initial residual = 0, Final residual = 0, No Iterations 0
diagonal:  Solving for rhoUx, Initial residual = 0, Final residual = 0, No Iterations 0
smoothSolver:  Solving for Ux, Initial residual = 0.00030839, Final residual = 1.48602e-17, No Iterations 1
diagonal:  Solving for rhoE, Initial residual = 0, Final residual = 0, No Iterations 0
smoothSolver:  Solving for e, Initial residual = 0.000175804, Final residual = 2.77987e-16, No Iterations 1
ExecutionTime = 0.03 s  ClockTime = 0 s

Courant Number = 0.299782
maxDeltaT1 = 0.00090721
deltaT = 0.000705897
Time = 0.0297602

diagonal:  Solving for rho, Initial residual = 0, Final residual = 0, No Iterations 0
diagonal:  Solving for rhoUx, Initial residual = 0, Final residual = 0, No Iterations 0
smoothSolver:  Solving for Ux, Initial residual = 0.000296762, Final residual = 1.39738e-17, No Iterations 1
diagonal:  Solving for rhoE, Initial residual = 0, Final residual = 0, No Iterations 0
smoothSolver:  Solving for e, Initial residual = 0.000173107, Final residual = 2.85066e-16, No Iterations 1
ExecutionTime = 0.03 s  ClockTime = 0 s

Courant Number = 0.299737
maxDeltaT1 = 0.000905951
deltaT = 0.000705897
Time = 0.0304661

diagonal:  Solving for rho, Initial residual = 0, Final residual = 0, No Iterations 0
diagonal:  Solving for rhoUx, Initial residual = 0, Final residual = 0, No Iterations 0
smoothSolver:  Solving for Ux, Initial residual = 0.000283241, Final residual = 1.71635e-17, No Iterations 1
diagonal:  Solving for rhoE, Initial residual = 0, Final residual = 0, No Iterations 0
smoothSolver:  Solving for e, Initial residual = 0.000168845, Final residual = 2.80135e-16, No Iterations 1
ExecutionTime = 0.03 s  ClockTime = 0 s

Courant Number = 0.300058
maxDeltaT1 = 0.000904661
deltaT = 0.000705897
Time = 0.031172

diagonal:  Solving for rho, Initial residual = 0, Final residual = 0, No Iterations 0
diagonal:  Solving for rhoUx, Initial residual = 0, Final residual = 0, No Iterations 0
smoothSolver:  Solving for Ux, Initial residual = 0.000268136, Final residual = 1.6763e-17, No Iterations 1
diagonal:  Solving for rhoE, Initial residual = 0, Final residual = 0, No Iterations 0
smoothSolver:  Solving for e, Initial residual = 0.000163929, Final residual = 2.85115e-16, No Iterations 1
ExecutionTime = 0.03 s  ClockTime = 0 s

Courant Number = 0.300607
maxDeltaT1 = 0.000904019
deltaT = 0.000703627
Time = 0.0318756

diagonal:  Solving for rho, Initial residual = 0, Final residual = 0, No Iterations 0
diagonal:  Solving for rhoUx, Initial residual = 0, Final residual = 0, No Iterations 0
smoothSolver:  Solving for Ux, Initial residual = 0.000259212, Final residual = 1.75913e-17, No Iterations 1
diagonal:  Solving for rhoE, Initial residual = 0, Final residual = 0, No Iterations 0
smoothSolver:  Solving for e, Initial residual = 0.000162899, Final residual = 2.73386e-16, No Iterations 1
ExecutionTime = 0.04 s  ClockTime = 0 s

Courant Number = 0.299974
maxDeltaT1 = 0.000903936
deltaT = 0.000703627
Time = 0.0325792

diagonal:  Solving for rho, Initial residual = 0, Final residual = 0, No Iterations 0
diagonal:  Solving for rhoUx, Initial residual = 0, Final residual = 0, No Iterations 0
smoothSolver:  Solving for Ux, Initial residual = 0.000250469, Final residual = 1.47927e-17, No Iterations 1
diagonal:  Solving for rhoE, Initial residual = 0, Final residual = 0, No Iterations 0
smoothSolver:  Solving for e, Initial residual = 0.000161528, Final residual = 2.64999e-16, No Iterations 1
ExecutionTime = 0.04 s  ClockTime = 0 s

Courant Number = 0.30013
maxDeltaT1 = 0.000904337
deltaT = 0.000703627
Time = 0.0332828

diagonal:  Solving for rho, Initial residual = 0, Final residual = 0, No Iterations 0
diagonal:  Solving for rhoUx, Initial residual = 0, Final residual = 0, No Iterations 0
smoothSolver:  Solving for Ux, Initial residual = 0.00023982, Final residual = 2.0148e-17, No Iterations 1
diagonal:  Solving for rhoE, Initial residual = 0, Final residual = 0, No Iterations 0
smoothSolver:  Solving for e, Initial residual = 0.000158826, Final residual = 2.95899e-16, No Iterations 1
ExecutionTime = 0.04 s  ClockTime = 0 s

Courant Number = 0.300131
maxDeltaT1 = 0.000903464
deltaT = 0.000703627
Time = 0.0339865

diagonal:  Solving for rho, Initial residual = 0, Final residual = 0, No Iterations 0
diagonal:  Solving for rhoUx, Initial residual = 0, Final residual = 0, No Iterations 0
smoothSolver:  Solving for Ux, Initial residual = 0.000227678, Final residual = 1.75699e-17, No Iterations 1
diagonal:  Solving for rhoE, Initial residual = 0, Final residual = 0, No Iterations 0
smoothSolver:  Solving for e, Initial residual = 0.000155681, Final residual = 2.82833e-16, No Iterations 1
ExecutionTime = 0.04 s  ClockTime = 0 s

Courant Number = 0.300233
maxDeltaT1 = 0.00090239
deltaT = 0.000703627
Time = 0.0346901

diagonal:  Solving for rho, Initial residual = 0, Final residual = 0, No Iterations 0
diagonal:  Solving for rhoUx, Initial residual = 0, Final residual = 0, No Iterations 0
smoothSolver:  Solving for Ux, Initial residual = 0.000221965, Final residual = 2.10098e-17, No Iterations 1
diagonal:  Solving for rhoE, Initial residual = 0, Final residual = 0, No Iterations 0
smoothSolver:  Solving for e, Initial residual = 0.000154978, Final residual = 2.95535e-16, No Iterations 1
ExecutionTime = 0.04 s  ClockTime = 0 s

Courant Number = 0.30074
maxDeltaT1 = 0.000901828
deltaT = 0.000701335
Time = 0.0353914

diagonal:  Solving for rho, Initial residual = 0, Final residual = 0, No Iterations 0
diagonal:  Solving for rhoUx, Initial residual = 0, Final residual = 0, No Iterations 0
smoothSolver:  Solving for Ux, Initial residual = 0.000214141, Final residual = 1.56573e-17, No Iterations 1
diagonal:  Solving for rhoE, Initial residual = 0, Final residual = 0, No Iterations 0
smoothSolver:  Solving for e, Initial residual = 0.00015233, Final residual = 2.64237e-16, No Iterations 1
ExecutionTime = 0.04 s  ClockTime = 0 s

Courant Number = 0.300085
maxDeltaT1 = 0.000901713
deltaT = 0.000701335
Time = 0.0360928

diagonal:  Solving for rho, Initial residual = 0, Final residual = 0, No Iterations 0
diagonal:  Solving for rhoUx, Initial residual = 0, Final residual = 0, No Iterations 0
smoothSolver:  Solving for Ux, Initial residual = 0.000205422, Final residual = 1.18172e-17, No Iterations 1
diagonal:  Solving for rhoE, Initial residual = 0, Final residual = 0, No Iterations 0
smoothSolver:  Solving for e, Initial residual = 0.000148839, Final residual = 3.0119e-16, No Iterations 1
ExecutionTime = 0.04 s  ClockTime = 0 s

Courant Number = 0.300257
maxDeltaT1 = 0.000901991
deltaT = 0.000701335
Time = 0.0367941

diagonal:  Solving for rho, Initial residual = 0, Final residual = 0, No Iterations 0
diagonal:  Solving for rhoUx, Initial residual = 0, Final residual = 0, No Iterations 0
smoothSolver:  Solving for Ux, Initial residual = 0.000195328, Final residual = 1.48394e-17, No Iterations 1
diagonal:  Solving for rhoE, Initial residual = 0, Final residual = 0, No Iterations 0
smoothSolver:  Solving for e, Initial residual = 0.000145306, Final residual = 2.7773e-16, No Iterations 1
ExecutionTime = 0.04 s  ClockTime = 0 s

Courant Number = 0.300294
maxDeltaT1 = 0.000901455
deltaT = 0.000701335
Time = 0.0374954

diagonal:  Solving for rho, Initial residual = 0, Final residual = 0, No Iterations 0
diagonal:  Solving for rhoUx, Initial residual = 0, Final residual = 0, No Iterations 0
smoothSolver:  Solving for Ux, Initial residual = 0.000191291, Final residual = 1.64622e-17, No Iterations 1
diagonal:  Solving for rhoE, Initial residual = 0, Final residual = 0, No Iterations 0
smoothSolver:  Solving for e, Initial residual = 0.000145597, Final residual = 2.7426e-16, No Iterations 1
ExecutionTime = 0.04 s  ClockTime = 0 s

Courant Number = 0.300228
maxDeltaT1 = 0.000900536
deltaT = 0.000701335
Time = 0.0381968

diagonal:  Solving for rho, Initial residual = 0, Final residual = 0, No Iterations 0
diagonal:  Solving for rhoUx, Initial residual = 0, Final residual = 0, No Iterations 0
smoothSolver:  Solving for Ux, Initial residual = 0.000185858, Final residual = 1.66335e-17, No Iterations 1
diagonal:  Solving for rhoE, Initial residual = 0, Final residual = 0, No Iterations 0
smoothSolver:  Solving for e, Initial residual = 0.00014457, Final residual = 2.32643e-16, No Iterations 1
ExecutionTime = 0.04 s  ClockTime = 0 s

Courant Number = 0.300696
maxDeltaT1 = 0.000900027
deltaT = 0.000699021
Time = 0.0388958

diagonal:  Solving for rho, Initial residual = 0, Final residual = 0, No Iterations 0
diagonal:  Solving for rhoUx, Initial residual = 0, Final residual = 0, No Iterations 0
smoothSolver:  Solving for Ux, Initial residual = 0.000178191, Final residual = 1.51783e-17, No Iterations 1
diagonal:  Solving for rhoE, Initial residual = 0, Final residual = 0, No Iterations 0
smoothSolver:  Solving for e, Initial residual = 0.000141752, Final residual = 2.77763e-16, No Iterations 1
ExecutionTime = 0.04 s  ClockTime = 0 s

Courant Number = 0.300018
maxDeltaT1 = 0.000899881
deltaT = 0.000699021
Time = 0.0395948

diagonal:  Solving for rho, Initial residual = 0, Final residual = 0, No Iterations 0
diagonal:  Solving for rhoUx, Initial residual = 0, Final residual = 0, No Iterations 0
smoothSolver:  Solving for Ux, Initial residual = 0.000169873, Final residual = 1.30249e-17, No Iterations 1
diagonal:  Solving for rhoE, Initial residual = 0, Final residual = 0, No Iterations 0
smoothSolver:  Solving for e, Initial residual = 0.000139008, Final residual = 3.08741e-16, No Iterations 1
ExecutionTime = 0.04 s  ClockTime = 0 s

Courant Number = 0.3002
maxDeltaT1 = 0.000900057
deltaT = 0.000699021
Time = 0.0402938

diagonal:  Solving for rho, Initial residual = 0, Final residual = 0, No Iterations 0
diagonal:  Solving for rhoUx, Initial residual = 0, Final residual = 0, No Iterations 0
smoothSolver:  Solving for Ux, Initial residual = 0.000166924, Final residual = 2.02376e-17, No Iterations 1
diagonal:  Solving for rhoE, Initial residual = 0, Final residual = 0, No Iterations 0
smoothSolver:  Solving for e, Initial residual = 0.000138524, Final residual = 3.1456e-16, No Iterations 1
ExecutionTime = 0.04 s  ClockTime = 0 s

Courant Number = 0.300265
maxDeltaT1 = 0.000899808
deltaT = 0.000699021
Time = 0.0409929

diagonal:  Solving for rho, Initial residual = 0, Final residual = 0, No Iterations 0
diagonal:  Solving for rhoUx, Initial residual = 0, Final residual = 0, No Iterations 0
smoothSolver:  Solving for Ux, Initial residual = 0.000162781, Final residual = 1.37609e-17, No Iterations 1
diagonal:  Solving for rhoE, Initial residual = 0, Final residual = 0, No Iterations 0
smoothSolver:  Solving for e, Initial residual = 0.000136765, Final residual = 2.76498e-16, No Iterations 1
ExecutionTime = 0.04 s  ClockTime = 0 s

Courant Number = 0.300226
maxDeltaT1 = 0.000899003
deltaT = 0.000699021
Time = 0.0416919

diagonal:  Solving for rho, Initial residual = 0, Final residual = 0, No Iterations 0
diagonal:  Solving for rhoUx, Initial residual = 0, Final residual = 0, No Iterations 0
smoothSolver:  Solving for Ux, Initial residual = 0.000157386, Final residual = 1.86054e-17, No Iterations 1
diagonal:  Solving for rhoE, Initial residual = 0, Final residual = 0, No Iterations 0
smoothSolver:  Solving for e, Initial residual = 0.000133948, Final residual = 3.21986e-16, No Iterations 1
ExecutionTime = 0.05 s  ClockTime = 0 s

Courant Number = 0.300505
maxDeltaT1 = 0.000898532
deltaT = 0.000696683
Time = 0.0423886

diagonal:  Solving for rho, Initial residual = 0, Final residual = 0, No Iterations 0
diagonal:  Solving for rhoUx, Initial residual = 0, Final residual = 0, No Iterations 0
smoothSolver:  Solving for Ux, Initial residual = 0.000150305, Final residual = 1.94905e-17, No Iterations 1
diagonal:  Solving for rhoE, Initial residual = 0, Final residual = 0, No Iterations 0
smoothSolver:  Solving for e, Initial residual = 0.000131561, Final residual = 3.07937e-16, No Iterations 1
ExecutionTime = 0.05 s  ClockTime = 0 s

Courant Number = 0.299802
maxDeltaT1 = 0.000898358
deltaT = 0.000696683
Time = 0.0430852

diagonal:  Solving for rho, Initial residual = 0, Final residual = 0, No Iterations 0
diagonal:  Solving for rhoUx, Initial residual = 0, Final residual = 0, No Iterations 0
smoothSolver:  Solving for Ux, Initial residual = 0.000148722, Final residual = 1.73026e-17, No Iterations 1
diagonal:  Solving for rhoE, Initial residual = 0, Final residual = 0, No Iterations 0
smoothSolver:  Solving for e, Initial residual = 0.000132282, Final residual = 3.25093e-16, No Iterations 1
ExecutionTime = 0.05 s  ClockTime = 0 s

Courant Number = 0.299989
maxDeltaT1 = 0.000898454
deltaT = 0.000696683
Time = 0.0437819

diagonal:  Solving for rho, Initial residual = 0, Final residual = 0, No Iterations 0
diagonal:  Solving for rhoUx, Initial residual = 0, Final residual = 0, No Iterations 0
smoothSolver:  Solving for Ux, Initial residual = 0.000145687, Final residual = 1.70763e-17, No Iterations 1
diagonal:  Solving for rhoE, Initial residual = 0, Final residual = 0, No Iterations 0
smoothSolver:  Solving for e, Initial residual = 0.00013171, Final residual = 3.00411e-16, No Iterations 1
ExecutionTime = 0.05 s  ClockTime = 0 s

Courant Number = 0.300074
maxDeltaT1 = 0.000898441
deltaT = 0.000696683
Time = 0.0444786

diagonal:  Solving for rho, Initial residual = 0, Final residual = 0, No Iterations 0
diagonal:  Solving for rhoUx, Initial residual = 0, Final residual = 0, No Iterations 0
smoothSolver:  Solving for Ux, Initial residual = 0.000141242, Final residual = 1.47515e-17, No Iterations 1
diagonal:  Solving for rhoE, Initial residual = 0, Final residual = 0, No Iterations 0
smoothSolver:  Solving for e, Initial residual = 0.000129977, Final residual = 2.97336e-16, No Iterations 1
ExecutionTime = 0.05 s  ClockTime = 0 s

Courant Number = 0.300069
maxDeltaT1 = 0.000897723
deltaT = 0.000696683
Time = 0.0451753

diagonal:  Solving for rho, Initial residual = 0, Final residual = 0, No Iterations 0
diagonal:  Solving for rhoUx, Initial residual = 0, Final residual = 0, No Iterations 0
smoothSolver:  Solving for Ux, Initial residual = 0.000135658, Final residual = 1.83719e-17, No Iterations 1
diagonal:  Solving for rhoE, Initial residual = 0, Final residual = 0, No Iterations 0
smoothSolver:  Solving for e, Initial residual = 0.000127631, Final residual = 3.11594e-16, No Iterations 1
ExecutionTime = 0.05 s  ClockTime = 0 s

Courant Number = 0.300187
maxDeltaT1 = 0.000897281
deltaT = 0.000696683
Time = 0.045872

diagonal:  Solving for rho, Initial residual = 0, Final residual = 0, No Iterations 0
diagonal:  Solving for rhoUx, Initial residual = 0, Final residual = 0, No Iterations 0
smoothSolver:  Solving for Ux, Initial residual = 0.00013472, Final residual = 1.55475e-17, No Iterations 1
diagonal:  Solving for rhoE, Initial residual = 0, Final residual = 0, No Iterations 0
smoothSolver:  Solving for e, Initial residual = 0.000127602, Final residual = 3.04302e-16, No Iterations 1
ExecutionTime = 0.05 s  ClockTime = 0 s

Courant Number = 0.300478
maxDeltaT1 = 0.000897086
deltaT = 0.000696683
Time = 0.0465687

diagonal:  Solving for rho, Initial residual = 0, Final residual = 0, No Iterations 0
diagonal:  Solving for rhoUx, Initial residual = 0, Final residual = 0, No Iterations 0
smoothSolver:  Solving for Ux, Initial residual = 0.00013255, Final residual = 1.65313e-17, No Iterations 1
diagonal:  Solving for rhoE, Initial residual = 0, Final residual = 0, No Iterations 0
smoothSolver:  Solving for e, Initial residual = 0.000126381, Final residual = 2.96509e-16, No Iterations 1
ExecutionTime = 0.05 s  ClockTime = 0 s

Courant Number = 0.300668
maxDeltaT1 = 0.000897117
deltaT = 0.000694305
Time = 0.047263

diagonal:  Solving for rho, Initial residual = 0, Final residual = 0, No Iterations 0
diagonal:  Solving for rhoUx, Initial residual = 0, Final residual = 0, No Iterations 0
smoothSolver:  Solving for Ux, Initial residual = 0.000128619, Final residual = 1.32935e-17, No Iterations 1
diagonal:  Solving for rhoE, Initial residual = 0, Final residual = 0, No Iterations 0
smoothSolver:  Solving for e, Initial residual = 0.000123759, Final residual = 2.75261e-16, No Iterations 1
ExecutionTime = 0.05 s  ClockTime = 0 s

Courant Number = 0.299742
maxDeltaT1 = 0.00089729
deltaT = 0.000694305
Time = 0.0479573

diagonal:  Solving for rho, Initial residual = 0, Final residual = 0, No Iterations 0
diagonal:  Solving for rhoUx, Initial residual = 0, Final residual = 0, No Iterations 0
smoothSolver:  Solving for Ux, Initial residual = 0.000124066, Final residual = 1.36962e-17, No Iterations 1
diagonal:  Solving for rhoE, Initial residual = 0, Final residual = 0, No Iterations 0
smoothSolver:  Solving for e, Initial residual = 0.00012202, Final residual = 2.95854e-16, No Iterations 1
ExecutionTime = 0.05 s  ClockTime = 0 s

Courant Number = 0.299762
maxDeltaT1 = 0.000896644
deltaT = 0.000694305
Time = 0.0486516

diagonal:  Solving for rho, Initial residual = 0, Final residual = 0, No Iterations 0
diagonal:  Solving for rhoUx, Initial residual = 0, Final residual = 0, No Iterations 0
smoothSolver:  Solving for Ux, Initial residual = 0.000123367, Final residual = 1.62169e-17, No Iterations 1
diagonal:  Solving for rhoE, Initial residual = 0, Final residual = 0, No Iterations 0
smoothSolver:  Solving for e, Initial residual = 0.000122738, Final residual = 2.93739e-16, No Iterations 1
ExecutionTime = 0.05 s  ClockTime = 0 s

Courant Number = 0.299758
maxDeltaT1 = 0.000896227
deltaT = 0.000694305
Time = 0.0493459

diagonal:  Solving for rho, Initial residual = 0, Final residual = 0, No Iterations 0
diagonal:  Solving for rhoUx, Initial residual = 0, Final residual = 0, No Iterations 0
smoothSolver:  Solving for Ux, Initial residual = 0.000121731, Final residual = 1.56725e-17, No Iterations 1
diagonal:  Solving for rhoE, Initial residual = 0, Final residual = 0, No Iterations 0
smoothSolver:  Solving for e, Initial residual = 0.000122354, Final residual = 2.4671e-16, No Iterations 1
ExecutionTime = 0.05 s  ClockTime = 0 s

Courant Number = 0.300034
maxDeltaT1 = 0.000896017
deltaT = 0.000694305
Time = 0.0500402

diagonal:  Solving for rho, Initial residual = 0, Final residual = 0, No Iterations 0
diagonal:  Solving for rhoUx, Initial residual = 0, Final residual = 0, No Iterations 0
smoothSolver:  Solving for Ux, Initial residual = 0.000118832, Final residual = 1.99072e-17, No Iterations 1
diagonal:  Solving for rhoE, Initial residual = 0, Final residual = 0, No Iterations 0
smoothSolver:  Solving for e, Initial residual = 0.000120839, Final residual = 2.49505e-16, No Iterations 1
ExecutionTime = 0.05 s  ClockTime = 0 s

Courant Number = 0.300223
maxDeltaT1 = 0.000895998
deltaT = 0.000694305
Time = 0.0507345

diagonal:  Solving for rho, Initial residual = 0, Final residual = 0, No Iterations 0
diagonal:  Solving for rhoUx, Initial residual = 0, Final residual = 0, No Iterations 0
smoothSolver:  Solving for Ux, Initial residual = 0.000114865, Final residual = 1.44351e-17, No Iterations 1
diagonal:  Solving for rhoE, Initial residual = 0, Final residual = 0, No Iterations 0
smoothSolver:  Solving for e, Initial residual = 0.000118434, Final residual = 2.54327e-16, No Iterations 1
ExecutionTime = 0.05 s  ClockTime = 0 s

Courant Number = 0.300333
maxDeltaT1 = 0.000896158
deltaT = 0.000694305
Time = 0.0514288

diagonal:  Solving for rho, Initial residual = 0, Final residual = 0, No Iterations 0
diagonal:  Solving for rhoUx, Initial residual = 0, Final residual = 0, No Iterations 0
smoothSolver:  Solving for Ux, Initial residual = 0.000114124, Final residual = 1.93717e-17, No Iterations 1
diagonal:  Solving for rhoE, Initial residual = 0, Final residual = 0, No Iterations 0
smoothSolver:  Solving for e, Initial residual = 0.00011863, Final residual = 2.48512e-16, No Iterations 1
ExecutionTime = 0.05 s  ClockTime = 0 s

Courant Number = 0.300373
maxDeltaT1 = 0.000895727
deltaT = 0.000694305
Time = 0.0521231

diagonal:  Solving for rho, Initial residual = 0, Final residual = 0, No Iterations 0
diagonal:  Solving for rhoUx, Initial residual = 0, Final residual = 0, No Iterations 0
smoothSolver:  Solving for Ux, Initial residual = 0.000112716, Final residual = 1.67902e-17, No Iterations 1
diagonal:  Solving for rhoE, Initial residual = 0, Final residual = 0, No Iterations 0
smoothSolver:  Solving for e, Initial residual = 0.000117721, Final residual = 2.37123e-16, No Iterations 1
ExecutionTime = 0.05 s  ClockTime = 0 s

Courant Number = 0.300348
maxDeltaT1 = 0.000895332
deltaT = 0.000694305
Time = 0.0528174

diagonal:  Solving for rho, Initial residual = 0, Final residual = 0, No Iterations 0
diagonal:  Solving for rhoUx, Initial residual = 0, Final residual = 0, No Iterations 0
smoothSolver:  Solving for Ux, Initial residual = 0.000110118, Final residual = 1.52895e-17, No Iterations 1
diagonal:  Solving for rhoE, Initial residual = 0, Final residual = 0, No Iterations 0
smoothSolver:  Solving for e, Initial residual = 0.000116338, Final residual = 2.4483e-16, No Iterations 1
ExecutionTime = 0.05 s  ClockTime = 0 s

Courant Number = 0.300539
maxDeltaT1 = 0.000895113
deltaT = 0.000691869
Time = 0.0535093

diagonal:  Solving for rho, Initial residual = 0, Final residual = 0, No Iterations 0
diagonal:  Solving for rhoUx, Initial residual = 0, Final residual = 0, No Iterations 0
smoothSolver:  Solving for Ux, Initial residual = 0.000106181, Final residual = 1.36087e-17, No Iterations 1
diagonal:  Solving for rhoE, Initial residual = 0, Final residual = 0, No Iterations 0
smoothSolver:  Solving for e, Initial residual = 0.000114115, Final residual = 2.73353e-16, No Iterations 1
ExecutionTime = 0.06 s  ClockTime = 0 s

Courant Number = 0.299669
maxDeltaT1 = 0.000895058
deltaT = 0.000691869
Time = 0.0542011

diagonal:  Solving for rho, Initial residual = 0, Final residual = 0, No Iterations 0
diagonal:  Solving for rhoUx, Initial residual = 0, Final residual = 0, No Iterations 0
smoothSolver:  Solving for Ux, Initial residual = 0.000105509, Final residual = 1.9048e-17, No Iterations 1
diagonal:  Solving for rhoE, Initial residual = 0, Final residual = 0, No Iterations 0
smoothSolver:  Solving for e, Initial residual = 0.000114774, Final residual = 2.3487e-16, No Iterations 1
ExecutionTime = 0.06 s  ClockTime = 0 s

Courant Number = 0.299785
maxDeltaT1 = 0.000895154
deltaT = 0.000691869
Time = 0.054893

diagonal:  Solving for rho, Initial residual = 0, Final residual = 0, No Iterations 0
diagonal:  Solving for rhoUx, Initial residual = 0, Final residual = 0, No Iterations 0
smoothSolver:  Solving for Ux, Initial residual = 0.000104468, Final residual = 1.53995e-17, No Iterations 1
diagonal:  Solving for rhoE, Initial residual = 0, Final residual = 0, No Iterations 0
smoothSolver:  Solving for e, Initial residual = 0.000114563, Final residual = 2.85733e-16, No Iterations 1
ExecutionTime = 0.06 s  ClockTime = 0 s

Courant Number = 0.299839
maxDeltaT1 = 0.000894946
deltaT = 0.000691869
Time = 0.0555849

diagonal:  Solving for rho, Initial residual = 0, Final residual = 0, No Iterations 0
diagonal:  Solving for rhoUx, Initial residual = 0, Final residual = 0, No Iterations 0
smoothSolver:  Solving for Ux, Initial residual = 0.000102319, Final residual = 1.73538e-17, No Iterations 1
diagonal:  Solving for rhoE, Initial residual = 0, Final residual = 0, No Iterations 0
smoothSolver:  Solving for e, Initial residual = 0.000113425, Final residual = 2.71914e-16, No Iterations 1
ExecutionTime = 0.06 s  ClockTime = 0 s

Courant Number = 0.299836
maxDeltaT1 = 0.000894573
deltaT = 0.000691869
Time = 0.0562767

diagonal:  Solving for rho, Initial residual = 0, Final residual = 0, No Iterations 0
diagonal:  Solving for rhoUx, Initial residual = 0, Final residual = 0, No Iterations 0
smoothSolver:  Solving for Ux, Initial residual = 9.91958e-05, Final residual = 2.03898e-17, No Iterations 1
diagonal:  Solving for rhoE, Initial residual = 0, Final residual = 0, No Iterations 0
smoothSolver:  Solving for e, Initial residual = 0.000111312, Final residual = 2.60934e-16, No Iterations 1
ExecutionTime = 0.06 s  ClockTime = 0 s

Courant Number = 0.299921
maxDeltaT1 = 0.000894349
deltaT = 0.000691869
Time = 0.0569686

diagonal:  Solving for rho, Initial residual = 0, Final residual = 0, No Iterations 0
diagonal:  Solving for rhoUx, Initial residual = 0, Final residual = 0, No Iterations 0
smoothSolver:  Solving for Ux, Initial residual = 9.84161e-05, Final residual = 1.66397e-17, No Iterations 1
diagonal:  Solving for rhoE, Initial residual = 0, Final residual = 0, No Iterations 0
smoothSolver:  Solving for e, Initial residual = 0.000111434, Final residual = 2.97808e-16, No Iterations 1
ExecutionTime = 0.06 s  ClockTime = 0 s

Courant Number = 0.300101
maxDeltaT1 = 0.000894265
deltaT = 0.000691869
Time = 0.0576605

diagonal:  Solving for rho, Initial residual = 0, Final residual = 0, No Iterations 0
diagonal:  Solving for rhoUx, Initial residual = 0, Final residual = 0, No Iterations 0
smoothSolver:  Solving for Ux, Initial residual = 9.76048e-05, Final residual = 1.5969e-17, No Iterations 1
diagonal:  Solving for rhoE, Initial residual = 0, Final residual = 0, No Iterations 0
smoothSolver:  Solving for e, Initial residual = 0.000110886, Final residual = 2.59257e-16, No Iterations 1
ExecutionTime = 0.06 s  ClockTime = 0 s

Courant Number = 0.300221
maxDeltaT1 = 0.000894311
deltaT = 0.000691869
Time = 0.0583523

diagonal:  Solving for rho, Initial residual = 0, Final residual = 0, No Iterations 0
diagonal:  Solving for rhoUx, Initial residual = 0, Final residual = 0, No Iterations 0
smoothSolver:  Solving for Ux, Initial residual = 9.56966e-05, Final residual = 1.79563e-17, No Iterations 1
diagonal:  Solving for rhoE, Initial residual = 0, Final residual = 0, No Iterations 0
smoothSolver:  Solving for e, Initial residual = 0.000110185, Final residual = 2.63483e-16, No Iterations 1
ExecutionTime = 0.06 s  ClockTime = 0 s

Courant Number = 0.300285
maxDeltaT1 = 0.000894275
deltaT = 0.000691869
Time = 0.0590442

diagonal:  Solving for rho, Initial residual = 0, Final residual = 0, No Iterations 0
diagonal:  Solving for rhoUx, Initial residual = 0, Final residual = 0, No Iterations 0
smoothSolver:  Solving for Ux, Initial residual = 9.28811e-05, Final residual = 1.90224e-17, No Iterations 1
diagonal:  Solving for rhoE, Initial residual = 0, Final residual = 0, No Iterations 0
smoothSolver:  Solving for e, Initial residual = 0.000108615, Final residual = 2.99745e-16, No Iterations 1
ExecutionTime = 0.06 s  ClockTime = 0 s

Courant Number = 0.300299
maxDeltaT1 = 0.000893922
deltaT = 0.000691869
Time = 0.0597361

diagonal:  Solving for rho, Initial residual = 0, Final residual = 0, No Iterations 0
diagonal:  Solving for rhoUx, Initial residual = 0, Final residual = 0, No Iterations 0
smoothSolver:  Solving for Ux, Initial residual = 9.20233e-05, Final residual = 1.76156e-17, No Iterations 1
diagonal:  Solving for rhoE, Initial residual = 0, Final residual = 0, No Iterations 0
smoothSolver:  Solving for e, Initial residual = 0.000109057, Final residual = 3.04343e-16, No Iterations 1
ExecutionTime = 0.06 s  ClockTime = 0 s

Courant Number = 0.300303
maxDeltaT1 = 0.000893698
deltaT = 0.000691869
Time = 0.060428

diagonal:  Solving for rho, Initial residual = 0, Final residual = 0, No Iterations 0
diagonal:  Solving for rhoUx, Initial residual = 0, Final residual = 0, No Iterations 0
smoothSolver:  Solving for Ux, Initial residual = 9.14671e-05, Final residual = 1.73618e-17, No Iterations 1
diagonal:  Solving for rhoE, Initial residual = 0, Final residual = 0, No Iterations 0
smoothSolver:  Solving for e, Initial residual = 0.000109148, Final residual = 2.71954e-16, No Iterations 1
ExecutionTime = 0.06 s  ClockTime = 0 s

Courant Number = 0.300477
maxDeltaT1 = 0.000893594
deltaT = 0.000691869
Time = 0.0611198

diagonal:  Solving for rho, Initial residual = 0, Final residual = 0, No Iterations 0
diagonal:  Solving for rhoUx, Initial residual = 0, Final residual = 0, No Iterations 0
smoothSolver:  Solving for Ux, Initial residual = 8.98826e-05, Final residual = 1.52635e-17, No Iterations 1
diagonal:  Solving for rhoE, Initial residual = 0, Final residual = 0, No Iterations 0
smoothSolver:  Solving for e, Initial residual = 0.000108215, Final residual = 2.83188e-16, No Iterations 1
ExecutionTime = 0.06 s  ClockTime = 0 s

Courant Number = 0.300598
maxDeltaT1 = 0.000893602
deltaT = 0.000689344
Time = 0.0618092

diagonal:  Solving for rho, Initial residual = 0, Final residual = 0, No Iterations 0
diagonal:  Solving for rhoUx, Initial residual = 0, Final residual = 0, No Iterations 0
smoothSolver:  Solving for Ux, Initial residual = 8.70859e-05, Final residual = 2.02959e-17, No Iterations 1
diagonal:  Solving for rhoE, Initial residual = 0, Final residual = 0, No Iterations 0
smoothSolver:  Solving for e, Initial residual = 0.000105973, Final residual = 2.98942e-16, No Iterations 1
ExecutionTime = 0.06 s  ClockTime = 0 s

Courant Number = 0.299572
maxDeltaT1 = 0.000893696
deltaT = 0.000689344
Time = 0.0624985

diagonal:  Solving for rho, Initial residual = 0, Final residual = 0, No Iterations 0
diagonal:  Solving for rhoUx, Initial residual = 0, Final residual = 0, No Iterations 0
smoothSolver:  Solving for Ux, Initial residual = 8.60917e-05, Final residual = 1.84261e-17, No Iterations 1
diagonal:  Solving for rhoE, Initial residual = 0, Final residual = 0, No Iterations 0
smoothSolver:  Solving for e, Initial residual = 0.000105752, Final residual = 2.81406e-16, No Iterations 1
ExecutionTime = 0.06 s  ClockTime = 0 s

Courant Number = 0.299598
maxDeltaT1 = 0.000893364
deltaT = 0.000689344
Time = 0.0631879

diagonal:  Solving for rho, Initial residual = 0, Final residual = 0, No Iterations 0
diagonal:  Solving for rhoUx, Initial residual = 0, Final residual = 0, No Iterations 0
smoothSolver:  Solving for Ux, Initial residual = 8.574e-05, Final residual = 1.74613e-17, No Iterations 1
diagonal:  Solving for rhoE, Initial residual = 0, Final residual = 0, No Iterations 0
smoothSolver:  Solving for e, Initial residual = 0.000105691, Final residual = 2.6745e-16, No Iterations 1
ExecutionTime = 0.06 s  ClockTime = 0 s

Courant Number = 0.299583
maxDeltaT1 = 0.000893144
deltaT = 0.000689344
Time = 0.0638772

diagonal:  Solving for rho, Initial residual = 0, Final residual = 0, No Iterations 0
diagonal:  Solving for rhoUx, Initial residual = 0, Final residual = 0, No Iterations 0
smoothSolver:  Solving for Ux, Initial residual = 8.43963e-05, Final residual = 1.54084e-17, No Iterations 1
diagonal:  Solving for rhoE, Initial residual = 0, Final residual = 0, No Iterations 0
smoothSolver:  Solving for e, Initial residual = 0.000105256, Final residual = 2.8038e-16, No Iterations 1
ExecutionTime = 0.06 s  ClockTime = 0 s

Courant Number = 0.299705
maxDeltaT1 = 0.000893026
deltaT = 0.000689344
Time = 0.0645665

diagonal:  Solving for rho, Initial residual = 0, Final residual = 0, No Iterations 0
diagonal:  Solving for rhoUx, Initial residual = 0, Final residual = 0, No Iterations 0
smoothSolver:  Solving for Ux, Initial residual = 8.21989e-05, Final residual = 1.98805e-17, No Iterations 1
diagonal:  Solving for rhoE, Initial residual = 0, Final residual = 0, No Iterations 0
smoothSolver:  Solving for e, Initial residual = 0.000103861, Final residual = 2.46489e-16, No Iterations 1
ExecutionTime = 0.06 s  ClockTime = 0 s

Courant Number = 0.299824
maxDeltaT1 = 0.000893004
deltaT = 0.000689344
Time = 0.0652559

diagonal:  Solving for rho, Initial residual = 0, Final residual = 0, No Iterations 0
diagonal:  Solving for rhoUx, Initial residual = 0, Final residual = 0, No Iterations 0
smoothSolver:  Solving for Ux, Initial residual = 8.10427e-05, Final residual = 1.54566e-17, No Iterations 1
diagonal:  Solving for rhoE, Initial residual = 0, Final residual = 0, No Iterations 0
smoothSolver:  Solving for e, Initial residual = 0.000103776, Final residual = 2.78764e-16, No Iterations 1
ExecutionTime = 0.07 s  ClockTime = 0 s

Courant Number = 0.2999
maxDeltaT1 = 0.000893075
deltaT = 0.000689344
Time = 0.0659452

diagonal:  Solving for rho, Initial residual = 0, Final residual = 0, No Iterations 0
diagonal:  Solving for rhoUx, Initial residual = 0, Final residual = 0, No Iterations 0
smoothSolver:  Solving for Ux, Initial residual = 8.09012e-05, Final residual = 1.87502e-17, No Iterations 1
diagonal:  Solving for rhoE, Initial residual = 0, Final residual = 0, No Iterations 0
smoothSolver:  Solving for e, Initial residual = 0.000103991, Final residual = 2.58086e-16, No Iterations 1
ExecutionTime = 0.07 s  ClockTime = 0 s

Courant Number = 0.299937
maxDeltaT1 = 0.000892887
deltaT = 0.000689344
Time = 0.0666346

diagonal:  Solving for rho, Initial residual = 0, Final residual = 0, No Iterations 0
diagonal:  Solving for rhoUx, Initial residual = 0, Final residual = 0, No Iterations 0
smoothSolver:  Solving for Ux, Initial residual = 7.97953e-05, Final residual = 1.97734e-17, No Iterations 1
diagonal:  Solving for rhoE, Initial residual = 0, Final residual = 0, No Iterations 0
smoothSolver:  Solving for e, Initial residual = 0.000103231, Final residual = 2.79964e-16, No Iterations 1
ExecutionTime = 0.07 s  ClockTime = 0 s

Courant Number = 0.299936
maxDeltaT1 = 0.00089267
deltaT = 0.000689344
Time = 0.0673239

diagonal:  Solving for rho, Initial residual = 0, Final residual = 0, No Iterations 0
diagonal:  Solving for rhoUx, Initial residual = 0, Final residual = 0, No Iterations 0
smoothSolver:  Solving for Ux, Initial residual = 7.78429e-05, Final residual = 1.37804e-17, No Iterations 1
diagonal:  Solving for rhoE, Initial residual = 0, Final residual = 0, No Iterations 0
smoothSolver:  Solving for e, Initial residual = 0.000101574, Final residual = 2.38904e-16, No Iterations 1
ExecutionTime = 0.07 s  ClockTime = 0 s

Courant Number = 0.299989
maxDeltaT1 = 0.000892543
deltaT = 0.000689344
Time = 0.0680133

diagonal:  Solving for rho, Initial residual = 0, Final residual = 0, No Iterations 0
diagonal:  Solving for rhoUx, Initial residual = 0, Final residual = 0, No Iterations 0
smoothSolver:  Solving for Ux, Initial residual = 7.65017e-05, Final residual = 1.87528e-17, No Iterations 1
diagonal:  Solving for rhoE, Initial residual = 0, Final residual = 0, No Iterations 0
smoothSolver:  Solving for e, Initial residual = 0.000100919, Final residual = 2.48481e-16, No Iterations 1
ExecutionTime = 0.07 s  ClockTime = 0 s

Courant Number = 0.300106
maxDeltaT1 = 0.000892499
deltaT = 0.000689344
Time = 0.0687026

diagonal:  Solving for rho, Initial residual = 0, Final residual = 0, No Iterations 0
diagonal:  Solving for rhoUx, Initial residual = 0, Final residual = 0, No Iterations 0
smoothSolver:  Solving for Ux, Initial residual = 7.65268e-05, Final residual = 1.86958e-17, No Iterations 1
diagonal:  Solving for rhoE, Initial residual = 0, Final residual = 0, No Iterations 0
smoothSolver:  Solving for e, Initial residual = 0.000101353, Final residual = 2.56018e-16, No Iterations 1
ExecutionTime = 0.07 s  ClockTime = 0 s

Courant Number = 0.300185
maxDeltaT1 = 0.000892536
deltaT = 0.000689344
Time = 0.0693919

diagonal:  Solving for rho, Initial residual = 0, Final residual = 0, No Iterations 0
diagonal:  Solving for rhoUx, Initial residual = 0, Final residual = 0, No Iterations 0
smoothSolver:  Solving for Ux, Initial residual = 7.56166e-05, Final residual = 1.69149e-17, No Iterations 1
diagonal:  Solving for rhoE, Initial residual = 0, Final residual = 0, No Iterations 0
smoothSolver:  Solving for e, Initial residual = 0.000101099, Final residual = 2.22547e-16, No Iterations 1
ExecutionTime = 0.07 s  ClockTime = 0 s

Courant Number = 0.300228
maxDeltaT1 = 0.000892474
deltaT = 0.000689344
Time = 0.0700813

diagonal:  Solving for rho, Initial residual = 0, Final residual = 0, No Iterations 0
diagonal:  Solving for rhoUx, Initial residual = 0, Final residual = 0, No Iterations 0
smoothSolver:  Solving for Ux, Initial residual = 7.38981e-05, Final residual = 1.99994e-17, No Iterations 1
diagonal:  Solving for rhoE, Initial residual = 0, Final residual = 0, No Iterations 0
smoothSolver:  Solving for e, Initial residual = 9.98966e-05, Final residual = 2.72653e-16, No Iterations 1
ExecutionTime = 0.07 s  ClockTime = 0 s

Courant Number = 0.300239
maxDeltaT1 = 0.000892263
deltaT = 0.000689344
Time = 0.0707706

diagonal:  Solving for rho, Initial residual = 0, Final residual = 0, No Iterations 0
diagonal:  Solving for rhoUx, Initial residual = 0, Final residual = 0, No Iterations 0
smoothSolver:  Solving for Ux, Initial residual = 7.24091e-05, Final residual = 1.54095e-17, No Iterations 1
diagonal:  Solving for rhoE, Initial residual = 0, Final residual = 0, No Iterations 0
smoothSolver:  Solving for e, Initial residual = 9.93221e-05, Final residual = 2.76157e-16, No Iterations 1
ExecutionTime = 0.07 s  ClockTime = 0 s

Courant Number = 0.300239
maxDeltaT1 = 0.000892131
deltaT = 0.000689344
Time = 0.07146

diagonal:  Solving for rho, Initial residual = 0, Final residual = 0, No Iterations 0
diagonal:  Solving for rhoUx, Initial residual = 0, Final residual = 0, No Iterations 0
smoothSolver:  Solving for Ux, Initial residual = 7.26169e-05, Final residual = 1.99632e-17, No Iterations 1
diagonal:  Solving for rhoE, Initial residual = 0, Final residual = 0, No Iterations 0
smoothSolver:  Solving for e, Initial residual = 9.97418e-05, Final residual = 2.27605e-16, No Iterations 1
ExecutionTime = 0.07 s  ClockTime = 0 s

Courant Number = 0.300352
maxDeltaT1 = 0.000892071
deltaT = 0.000689344
Time = 0.0721493

diagonal:  Solving for rho, Initial residual = 0, Final residual = 0, No Iterations 0
diagonal:  Solving for rhoUx, Initial residual = 0, Final residual = 0, No Iterations 0
smoothSolver:  Solving for Ux, Initial residual = 7.191e-05, Final residual = 1.79608e-17, No Iterations 1
diagonal:  Solving for rhoE, Initial residual = 0, Final residual = 0, No Iterations 0
smoothSolver:  Solving for e, Initial residual = 9.92125e-05, Final residual = 2.41724e-16, No Iterations 1
ExecutionTime = 0.07 s  ClockTime = 0 s

Courant Number = 0.300431
maxDeltaT1 = 0.000892082
deltaT = 0.000689344
Time = 0.0728387

diagonal:  Solving for rho, Initial residual = 0, Final residual = 0, No Iterations 0
diagonal:  Solving for rhoUx, Initial residual = 0, Final residual = 0, No Iterations 0
smoothSolver:  Solving for Ux, Initial residual = 7.03806e-05, Final residual = 1.88598e-17, No Iterations 1
diagonal:  Solving for rhoE, Initial residual = 0, Final residual = 0, No Iterations 0
smoothSolver:  Solving for e, Initial residual = 9.7792e-05, Final residual = 2.44033e-16, No Iterations 1
ExecutionTime = 0.07 s  ClockTime = 0 s

Courant Number = 0.300479
maxDeltaT1 = 0.000892116
deltaT = 0.000689344
Time = 0.073528

diagonal:  Solving for rho, Initial residual = 0, Final residual = 0, No Iterations 0
diagonal:  Solving for rhoUx, Initial residual = 0, Final residual = 0, No Iterations 0
smoothSolver:  Solving for Ux, Initial residual = 6.86887e-05, Final residual = 1.83744e-17, No Iterations 1
diagonal:  Solving for rhoE, Initial residual = 0, Final residual = 0, No Iterations 0
smoothSolver:  Solving for e, Initial residual = 9.66321e-05, Final residual = 2.29858e-16, No Iterations 1
ExecutionTime = 0.07 s  ClockTime = 0 s

Courant Number = 0.300498
maxDeltaT1 = 0.000891913
deltaT = 0.000689344
Time = 0.0742174

diagonal:  Solving for rho, Initial residual = 0, Final residual = 0, No Iterations 0
diagonal:  Solving for rhoUx, Initial residual = 0, Final residual = 0, No Iterations 0
smoothSolver:  Solving for Ux, Initial residual = 6.90084e-05, Final residual = 1.6485e-17, No Iterations 1
diagonal:  Solving for rhoE, Initial residual = 0, Final residual = 0, No Iterations 0
smoothSolver:  Solving for e, Initial residual = 9.74547e-05, Final residual = 2.49255e-16, No Iterations 1
ExecutionTime = 0.07 s  ClockTime = 0 s

Courant Number = 0.30049
maxDeltaT1 = 0.000891779
deltaT = 0.000689344
Time = 0.0749067

diagonal:  Solving for rho, Initial residual = 0, Final residual = 0, No Iterations 0
diagonal:  Solving for rhoUx, Initial residual = 0, Final residual = 0, No Iterations 0
smoothSolver:  Solving for Ux, Initial residual = 6.84662e-05, Final residual = 1.60095e-17, No Iterations 1
diagonal:  Solving for rhoE, Initial residual = 0, Final residual = 0, No Iterations 0
smoothSolver:  Solving for e, Initial residual = 9.73368e-05, Final residual = 2.42447e-16, No Iterations 1
ExecutionTime = 0.07 s  ClockTime = 0 s

Courant Number = 0.300567
maxDeltaT1 = 0.000891708
deltaT = 0.000689344
Time = 0.075596

diagonal:  Solving for rho, Initial residual = 0, Final residual = 0, No Iterations 0
diagonal:  Solving for rhoUx, Initial residual = 0, Final residual = 0, No Iterations 0
smoothSolver:  Solving for Ux, Initial residual = 6.71421e-05, Final residual = 2.14488e-17, No Iterations 1
diagonal:  Solving for rhoE, Initial residual = 0, Final residual = 0, No Iterations 0
smoothSolver:  Solving for e, Initial residual = 9.62952e-05, Final residual = 2.54732e-16, No Iterations 1
ExecutionTime = 0.07 s  ClockTime = 0 s

Courant Number = 0.300646
maxDeltaT1 = 0.000891698
deltaT = 0.00068663
Time = 0.0762827

diagonal:  Solving for rho, Initial residual = 0, Final residual = 0, No Iterations 0
diagonal:  Solving for rhoUx, Initial residual = 0, Final residual = 0, No Iterations 0
smoothSolver:  Solving for Ux, Initial residual = 6.50392e-05, Final residual = 1.79299e-17, No Iterations 1
diagonal:  Solving for rhoE, Initial residual = 0, Final residual = 0, No Iterations 0
smoothSolver:  Solving for e, Initial residual = 9.47988e-05, Final residual = 2.90655e-16, No Iterations 1
ExecutionTime = 0.07 s  ClockTime = 0 s

Courant Number = 0.299513
maxDeltaT1 = 0.000891747
deltaT = 0.00068663
Time = 0.0769693

diagonal:  Solving for rho, Initial residual = 0, Final residual = 0, No Iterations 0
diagonal:  Solving for rhoUx, Initial residual = 0, Final residual = 0, No Iterations 0
smoothSolver:  Solving for Ux, Initial residual = 6.55107e-05, Final residual = 1.73766e-17, No Iterations 1
diagonal:  Solving for rhoE, Initial residual = 0, Final residual = 0, No Iterations 0
smoothSolver:  Solving for e, Initial residual = 9.53999e-05, Final residual = 2.91881e-16, No Iterations 1
ExecutionTime = 0.07 s  ClockTime = 0 s

Courant Number = 0.299538
maxDeltaT1 = 0.000891613
deltaT = 0.00068663
Time = 0.0776559

diagonal:  Solving for rho, Initial residual = 0, Final residual = 0, No Iterations 0
diagonal:  Solving for rhoUx, Initial residual = 0, Final residual = 0, No Iterations 0
smoothSolver:  Solving for Ux, Initial residual = 6.51599e-05, Final residual = 2.20664e-17, No Iterations 1
diagonal:  Solving for rhoE, Initial residual = 0, Final residual = 0, No Iterations 0
smoothSolver:  Solving for e, Initial residual = 9.50848e-05, Final residual = 3.07167e-16, No Iterations 1
ExecutionTime = 0.08 s  ClockTime = 0 s

Courant Number = 0.299538
maxDeltaT1 = 0.00089148
deltaT = 0.00068663
Time = 0.0783426

diagonal:  Solving for rho, Initial residual = 0, Final residual = 0, No Iterations 0
diagonal:  Solving for rhoUx, Initial residual = 0, Final residual = 0, No Iterations 0
smoothSolver:  Solving for Ux, Initial residual = 6.40178e-05, Final residual = 1.53785e-17, No Iterations 1
diagonal:  Solving for rhoE, Initial residual = 0, Final residual = 0, No Iterations 0
smoothSolver:  Solving for e, Initial residual = 9.38961e-05, Final residual = 2.76511e-16, No Iterations 1
ExecutionTime = 0.08 s  ClockTime = 0 s

Courant Number = 0.29957
maxDeltaT1 = 0.000891401
deltaT = 0.00068663
Time = 0.0790292

diagonal:  Solving for rho, Initial residual = 0, Final residual = 0, No Iterations 0
diagonal:  Solving for rhoUx, Initial residual = 0, Final residual = 0, No Iterations 0
smoothSolver:  Solving for Ux, Initial residual = 6.2209e-05, Final residual = 1.58586e-17, No Iterations 1
diagonal:  Solving for rhoE, Initial residual = 0, Final residual = 0, No Iterations 0
smoothSolver:  Solving for e, Initial residual = 9.23543e-05, Final residual = 2.55208e-16, No Iterations 1
ExecutionTime = 0.08 s  ClockTime = 0 s

Courant Number = 0.299647
maxDeltaT1 = 0.000891375
deltaT = 0.00068663
Time = 0.0797158

diagonal:  Solving for rho, Initial residual = 0, Final residual = 0, No Iterations 0
diagonal:  Solving for rhoUx, Initial residual = 0, Final residual = 0, No Iterations 0
smoothSolver:  Solving for Ux, Initial residual = 6.25315e-05, Final residual = 1.84756e-17, No Iterations 1
diagonal:  Solving for rhoE, Initial residual = 0, Final residual = 0, No Iterations 0
smoothSolver:  Solving for e, Initial residual = 9.33884e-05, Final residual = 2.73993e-16, No Iterations 1
ExecutionTime = 0.08 s  ClockTime = 0 s

Courant Number = 0.299699
maxDeltaT1 = 0.0008914
deltaT = 0.00068663
Time = 0.0804025

diagonal:  Solving for rho, Initial residual = 0, Final residual = 0, No Iterations 0
diagonal:  Solving for rhoUx, Initial residual = 0, Final residual = 0, No Iterations 0
smoothSolver:  Solving for Ux, Initial residual = 6.23235e-05, Final residual = 1.70563e-17, No Iterations 1
diagonal:  Solving for rhoE, Initial residual = 0, Final residual = 0, No Iterations 0
smoothSolver:  Solving for e, Initial residual = 9.34886e-05, Final residual = 2.74819e-16, No Iterations 1
ExecutionTime = 0.08 s  ClockTime = 0 s

Courant Number = 0.299729
maxDeltaT1 = 0.000891357
deltaT = 0.00068663
Time = 0.0810891

diagonal:  Solving for rho, Initial residual = 0, Final residual = 0, No Iterations 0
diagonal:  Solving for rhoUx, Initial residual = 0, Final residual = 0, No Iterations 0
smoothSolver:  Solving for Ux, Initial residual = 6.13614e-05, Final residual = 1.91072e-17, No Iterations 1
diagonal:  Solving for rhoE, Initial residual = 0, Final residual = 0, No Iterations 0
smoothSolver:  Solving for e, Initial residual = 9.26862e-05, Final residual = 2.91874e-16, No Iterations 1
ExecutionTime = 0.08 s  ClockTime = 0 s

Courant Number = 0.299737
maxDeltaT1 = 0.000891224
deltaT = 0.00068663
Time = 0.0817757

diagonal:  Solving for rho, Initial residual = 0, Final residual = 0, No Iterations 0
diagonal:  Solving for rhoUx, Initial residual = 0, Final residual = 0, No Iterations 0
smoothSolver:  Solving for Ux, Initial residual = 5.97318e-05, Final residual = 2.06411e-17, No Iterations 1
diagonal:  Solving for rhoE, Initial residual = 0, Final residual = 0, No Iterations 0
smoothSolver:  Solving for e, Initial residual = 9.1128e-05, Final residual = 2.51302e-16, No Iterations 1
ExecutionTime = 0.08 s  ClockTime = 0 s

Courant Number = 0.299733
maxDeltaT1 = 0.00089114
deltaT = 0.00068663
Time = 0.0824623

diagonal:  Solving for rho, Initial residual = 0, Final residual = 0, No Iterations 0
diagonal:  Solving for rhoUx, Initial residual = 0, Final residual = 0, No Iterations 0
smoothSolver:  Solving for Ux, Initial residual = 5.97972e-05, Final residual = 1.65863e-17, No Iterations 1
diagonal:  Solving for rhoE, Initial residual = 0, Final residual = 0, No Iterations 0
smoothSolver:  Solving for e, Initial residual = 9.17861e-05, Final residual = 2.52218e-16, No Iterations 1
ExecutionTime = 0.08 s  ClockTime = 0 s

Courant Number = 0.299808
maxDeltaT1 = 0.000891103
deltaT = 0.00068663
Time = 0.083149

diagonal:  Solving for rho, Initial residual = 0, Final residual = 0, No Iterations 0
diagonal:  Solving for rhoUx, Initial residual = 0, Final residual = 0, No Iterations 0
smoothSolver:  Solving for Ux, Initial residual = 5.97493e-05, Final residual = 2.00461e-17, No Iterations 1
diagonal:  Solving for rhoE, Initial residual = 0, Final residual = 0, No Iterations 0
smoothSolver:  Solving for e, Initial residual = 9.1724e-05, Final residual = 2.5044e-16, No Iterations 1
ExecutionTime = 0.08 s  ClockTime = 0 s

Courant Number = 0.299861
maxDeltaT1 = 0.000891109
deltaT = 0.00068663
Time = 0.0838356

diagonal:  Solving for rho, Initial residual = 0, Final residual = 0, No Iterations 0
diagonal:  Solving for rhoUx, Initial residual = 0, Final residual = 0, No Iterations 0
smoothSolver:  Solving for Ux, Initial residual = 5.89386e-05, Final residual = 1.86501e-17, No Iterations 1
diagonal:  Solving for rhoE, Initial residual = 0, Final residual = 0, No Iterations 0
smoothSolver:  Solving for e, Initial residual = 9.07919e-05, Final residual = 2.56481e-16, No Iterations 1
ExecutionTime = 0.08 s  ClockTime = 0 s

Courant Number = 0.299894
maxDeltaT1 = 0.000891134
deltaT = 0.00068663
Time = 0.0845222

diagonal:  Solving for rho, Initial residual = 0, Final residual = 0, No Iterations 0
diagonal:  Solving for rhoUx, Initial residual = 0, Final residual = 0, No Iterations 0
smoothSolver:  Solving for Ux, Initial residual = 5.74657e-05, Final residual = 1.79792e-17, No Iterations 1
diagonal:  Solving for rhoE, Initial residual = 0, Final residual = 0, No Iterations 0
smoothSolver:  Solving for e, Initial residual = 8.94004e-05, Final residual = 2.68e-16, No Iterations 1
ExecutionTime = 0.08 s  ClockTime = 0 s

Courant Number = 0.299907
maxDeltaT1 = 0.000891005
deltaT = 0.00068663
Time = 0.0852089

diagonal:  Solving for rho, Initial residual = 0, Final residual = 0, No Iterations 0
diagonal:  Solving for rhoUx, Initial residual = 0, Final residual = 0, No Iterations 0
smoothSolver:  Solving for Ux, Initial residual = 5.72635e-05, Final residual = 2.03389e-17, No Iterations 1
diagonal:  Solving for rhoE, Initial residual = 0, Final residual = 0, No Iterations 0
smoothSolver:  Solving for e, Initial residual = 9.00355e-05, Final residual = 2.62768e-16, No Iterations 1
ExecutionTime = 0.08 s  ClockTime = 0 s

Courant Number = 0.299903
maxDeltaT1 = 0.000890918
deltaT = 0.00068663
Time = 0.0858955

diagonal:  Solving for rho, Initial residual = 0, Final residual = 0, No Iterations 0
diagonal:  Solving for rhoUx, Initial residual = 0, Final residual = 0, No Iterations 0
smoothSolver:  Solving for Ux, Initial residual = 5.73458e-05, Final residual = 1.50641e-17, No Iterations 1
diagonal:  Solving for rhoE, Initial residual = 0, Final residual = 0, No Iterations 0
smoothSolver:  Solving for e, Initial residual = 9.03442e-05, Final residual = 2.30309e-16, No Iterations 1
ExecutionTime = 0.08 s  ClockTime = 0 s

Courant Number = 0.299949
maxDeltaT1 = 0.000890872
deltaT = 0.00068663
Time = 0.0865821

diagonal:  Solving for rho, Initial residual = 0, Final residual = 0, No Iterations 0
diagonal:  Solving for rhoUx, Initial residual = 0, Final residual = 0, No Iterations 0
[...]

Courant Number = 0.301014
maxDeltaT1 = 0.000889684
deltaT = 0.00068663
Time = 0.228028

diagonal:  Solving for rho, Initial residual = 0, Final residual = 0, No Iterations 0
diagonal:  Solving for rhoUx, Initial residual = 0, Final residual = 0, No Iterations 0
smoothSolver:  Solving for Ux, Initial residual = 2.47173e-05, Final residual = 3.07023e-17, No Iterations 1
diagonal:  Solving for rhoE, Initial residual = 0, Final residual = 0, No Iterations 0
smoothSolver:  Solving for e, Initial residual = 5.5836e-05, Final residual = 2.96668e-16, No Iterations 1
ExecutionTime = 0.21 s  ClockTime = 0 s

Courant Number = 0.301014
maxDeltaT1 = 0.000889686
deltaT = 0.00068663
Time = 0.228714

diagonal:  Solving for rho, Initial residual = 0, Final residual = 0, No Iterations 0
diagonal:  Solving for rhoUx, Initial residual = 0, Final residual = 0, No Iterations 0
smoothSolver:  Solving for Ux, Initial residual = 2.48598e-05, Final residual = 3.1016e-17, No Iterations 1
diagonal:  Solving for rhoE, Initial residual = 0, Final residual = 0, No Iterations 0
smoothSolver:  Solving for e, Initial residual = 5.59389e-05, Final residual = 2.68893e-16, No Iterations 1
ExecutionTime = 0.21 s  ClockTime = 0 s

Courant Number = 0.301014
maxDeltaT1 = 0.000889688
deltaT = 0.00068663
Time = 0.229401

diagonal:  Solving for rho, Initial residual = 0, Final residual = 0, No Iterations 0
diagonal:  Solving for rhoUx, Initial residual = 0, Final residual = 0, No Iterations 0
smoothSolver:  Solving for Ux, Initial residual = 2.45856e-05, Final residual = 3.57292e-17, No Iterations 1
diagonal:  Solving for rhoE, Initial residual = 0, Final residual = 0, No Iterations 0
smoothSolver:  Solving for e, Initial residual = 5.53578e-05, Final residual = 2.72552e-16, No Iterations 1
ExecutionTime = 0.21 s  ClockTime = 0 s

Courant Number = 0.301014
maxDeltaT1 = 0.000889688
deltaT = 0.00068663
Time = 0.230088

diagonal:  Solving for rho, Initial residual = 0, Final residual = 0, No Iterations 0
diagonal:  Solving for rhoUx, Initial residual = 0, Final residual = 0, No Iterations 0
smoothSolver:  Solving for Ux, Initial residual = 2.39421e-05, Final residual = 2.97337e-17, No Iterations 1
diagonal:  Solving for rhoE, Initial residual = 0, Final residual = 0, No Iterations 0
smoothSolver:  Solving for e, Initial residual = 5.45885e-05, Final residual = 3.06096e-16, No Iterations 1
ExecutionTime = 0.21 s  ClockTime = 0 s

Courant Number = 0.301013
maxDeltaT1 = 0.000889688
deltaT = 0.00068663
Time = 0.230774

diagonal:  Solving for rho, Initial residual = 0, Final residual = 0, No Iterations 0
diagonal:  Solving for rhoUx, Initial residual = 0, Final residual = 0, No Iterations 0
smoothSolver:  Solving for Ux, Initial residual = 2.45508e-05, Final residual = 2.93243e-17, No Iterations 1
diagonal:  Solving for rhoE, Initial residual = 0, Final residual = 0, No Iterations 0
smoothSolver:  Solving for e, Initial residual = 5.54587e-05, Final residual = 2.90972e-16, No Iterations 1
ExecutionTime = 0.21 s  ClockTime = 0 s

Courant Number = 0.301013
maxDeltaT1 = 0.000889689
deltaT = 0.00068663
Time = 0.231461

diagonal:  Solving for rho, Initial residual = 0, Final residual = 0, No Iterations 0
diagonal:  Solving for rhoUx, Initial residual = 0, Final residual = 0, No Iterations 0
smoothSolver:  Solving for Ux, Initial residual = 2.47622e-05, Final residual = 3.13028e-17, No Iterations 1
diagonal:  Solving for rhoE, Initial residual = 0, Final residual = 0, No Iterations 0
smoothSolver:  Solving for e, Initial residual = 5.56084e-05, Final residual = 3.03591e-16, No Iterations 1
ExecutionTime = 0.21 s  ClockTime = 0 s

Courant Number = 0.301013
maxDeltaT1 = 0.00088969
deltaT = 0.00068663
Time = 0.232148

diagonal:  Solving for rho, Initial residual = 0, Final residual = 0, No Iterations 0
diagonal:  Solving for rhoUx, Initial residual = 0, Final residual = 0, No Iterations 0
smoothSolver:  Solving for Ux, Initial residual = 2.45523e-05, Final residual = 2.92157e-17, No Iterations 1
diagonal:  Solving for rhoE, Initial residual = 0, Final residual = 0, No Iterations 0
smoothSolver:  Solving for e, Initial residual = 5.50642e-05, Final residual = 2.96711e-16, No Iterations 1
ExecutionTime = 0.21 s  ClockTime = 0 s

Courant Number = 0.301013
maxDeltaT1 = 0.000889692
deltaT = 0.00068663
Time = 0.232834

diagonal:  Solving for rho, Initial residual = 0, Final residual = 0, No Iterations 0
diagonal:  Solving for rhoUx, Initial residual = 0, Final residual = 0, No Iterations 0
smoothSolver:  Solving for Ux, Initial residual = 2.3965e-05, Final residual = 3.34434e-17, No Iterations 1
diagonal:  Solving for rhoE, Initial residual = 0, Final residual = 0, No Iterations 0
smoothSolver:  Solving for e, Initial residual = 5.39757e-05, Final residual = 2.64676e-16, No Iterations 1
ExecutionTime = 0.21 s  ClockTime = 0 s

Courant Number = 0.301013
maxDeltaT1 = 0.000889694
deltaT = 0.00068663
Time = 0.233521

diagonal:  Solving for rho, Initial residual = 0, Final residual = 0, No Iterations 0
diagonal:  Solving for rhoUx, Initial residual = 0, Final residual = 0, No Iterations 0
smoothSolver:  Solving for Ux, Initial residual = 2.43827e-05, Final residual = 3.00179e-17, No Iterations 1
diagonal:  Solving for rhoE, Initial residual = 0, Final residual = 0, No Iterations 0
smoothSolver:  Solving for e, Initial residual = 5.50079e-05, Final residual = 2.93407e-16, No Iterations 1
ExecutionTime = 0.21 s  ClockTime = 0 s

Courant Number = 0.301013
maxDeltaT1 = 0.000889694
deltaT = 0.00068663
Time = 0.234208

diagonal:  Solving for rho, Initial residual = 0, Final residual = 0, No Iterations 0
diagonal:  Solving for rhoUx, Initial residual = 0, Final residual = 0, No Iterations 0
smoothSolver:  Solving for Ux, Initial residual = 2.46618e-05, Final residual = 3.40743e-17, No Iterations 1
diagonal:  Solving for rhoE, Initial residual = 0, Final residual = 0, No Iterations 0
smoothSolver:  Solving for e, Initial residual = 5.53275e-05, Final residual = 2.71116e-16, No Iterations 1
ExecutionTime = 0.21 s  ClockTime = 0 s

Courant Number = 0.301013
maxDeltaT1 = 0.000889694
deltaT = 0.00068663
Time = 0.234894

diagonal:  Solving for rho, Initial residual = 0, Final residual = 0, No Iterations 0
diagonal:  Solving for rhoUx, Initial residual = 0, Final residual = 0, No Iterations 0
smoothSolver:  Solving for Ux, Initial residual = 2.45166e-05, Final residual = 2.78179e-17, No Iterations 1
diagonal:  Solving for rhoE, Initial residual = 0, Final residual = 0, No Iterations 0
smoothSolver:  Solving for e, Initial residual = 5.4947e-05, Final residual = 2.8686e-16, No Iterations 1
ExecutionTime = 0.21 s  ClockTime = 0 s

Courant Number = 0.301012
maxDeltaT1 = 0.000889694
deltaT = 0.00068663
Time = 0.235581

diagonal:  Solving for rho, Initial residual = 0, Final residual = 0, No Iterations 0
diagonal:  Solving for rhoUx, Initial residual = 0, Final residual = 0, No Iterations 0
smoothSolver:  Solving for Ux, Initial residual = 2.3985e-05, Final residual = 2.99145e-17, No Iterations 1
diagonal:  Solving for rhoE, Initial residual = 0, Final residual = 0, No Iterations 0
smoothSolver:  Solving for e, Initial residual = 5.39295e-05, Final residual = 2.56697e-16, No Iterations 1
ExecutionTime = 0.21 s  ClockTime = 0 s

Courant Number = 0.301013
maxDeltaT1 = 0.000889696
deltaT = 0.00068663
Time = 0.236267

diagonal:  Solving for rho, Initial residual = 0, Final residual = 0, No Iterations 0
diagonal:  Solving for rhoUx, Initial residual = 0, Final residual = 0, No Iterations 0
smoothSolver:  Solving for Ux, Initial residual = 2.42108e-05, Final residual = 3.38735e-17, No Iterations 1
diagonal:  Solving for rhoE, Initial residual = 0, Final residual = 0, No Iterations 0
smoothSolver:  Solving for e, Initial residual = 5.459e-05, Final residual = 2.75258e-16, No Iterations 1
ExecutionTime = 0.22 s  ClockTime = 0 s

Courant Number = 0.301013
maxDeltaT1 = 0.000889697
deltaT = 0.00068663
Time = 0.236954

diagonal:  Solving for rho, Initial residual = 0, Final residual = 0, No Iterations 0
diagonal:  Solving for rhoUx, Initial residual = 0, Final residual = 0, No Iterations 0
smoothSolver:  Solving for Ux, Initial residual = 2.45583e-05, Final residual = 3.14258e-17, No Iterations 1
diagonal:  Solving for rhoE, Initial residual = 0, Final residual = 0, No Iterations 0
smoothSolver:  Solving for e, Initial residual = 5.49596e-05, Final residual = 3.11107e-16, No Iterations 1
ExecutionTime = 0.22 s  ClockTime = 0 s

Courant Number = 0.301013
maxDeltaT1 = 0.0008897
deltaT = 0.00068663
Time = 0.237641

diagonal:  Solving for rho, Initial residual = 0, Final residual = 0, No Iterations 0
diagonal:  Solving for rhoUx, Initial residual = 0, Final residual = 0, No Iterations 0
smoothSolver:  Solving for Ux, Initial residual = 2.44791e-05, Final residual = 3.48295e-17, No Iterations 1
diagonal:  Solving for rhoE, Initial residual = 0, Final residual = 0, No Iterations 0
smoothSolver:  Solving for e, Initial residual = 5.46225e-05, Final residual = 2.76636e-16, No Iterations 1
ExecutionTime = 0.22 s  ClockTime = 0 s

Courant Number = 0.301012
maxDeltaT1 = 0.0008897
deltaT = 0.00068663
Time = 0.238327

diagonal:  Solving for rho, Initial residual = 0, Final residual = 0, No Iterations 0
diagonal:  Solving for rhoUx, Initial residual = 0, Final residual = 0, No Iterations 0
smoothSolver:  Solving for Ux, Initial residual = 2.40057e-05, Final residual = 2.80881e-17, No Iterations 1
diagonal:  Solving for rhoE, Initial residual = 0, Final residual = 0, No Iterations 0
smoothSolver:  Solving for e, Initial residual = 5.3737e-05, Final residual = 2.85381e-16, No Iterations 1
ExecutionTime = 0.22 s  ClockTime = 0 s

Courant Number = 0.301012
maxDeltaT1 = 0.0008897
deltaT = 0.00068663
Time = 0.239014

diagonal:  Solving for rho, Initial residual = 0, Final residual = 0, No Iterations 0
diagonal:  Solving for rhoUx, Initial residual = 0, Final residual = 0, No Iterations 0
smoothSolver:  Solving for Ux, Initial residual = 2.40355e-05, Final residual = 3.26234e-17, No Iterations 1
diagonal:  Solving for rhoE, Initial residual = 0, Final residual = 0, No Iterations 0
smoothSolver:  Solving for e, Initial residual = 5.41344e-05, Final residual = 2.51073e-16, No Iterations 1
ExecutionTime = 0.22 s  ClockTime = 0 s

Courant Number = 0.301012
maxDeltaT1 = 0.0008897
deltaT = 0.00068663
Time = 0.239701

diagonal:  Solving for rho, Initial residual = 0, Final residual = 0, No Iterations 0
diagonal:  Solving for rhoUx, Initial residual = 0, Final residual = 0, No Iterations 0
smoothSolver:  Solving for Ux, Initial residual = 2.44507e-05, Final residual = 3.19967e-17, No Iterations 1
diagonal:  Solving for rhoE, Initial residual = 0, Final residual = 0, No Iterations 0
smoothSolver:  Solving for e, Initial residual = 5.46682e-05, Final residual = 2.99299e-16, No Iterations 1
ExecutionTime = 0.22 s  ClockTime = 0 s

Courant Number = 0.301012
maxDeltaT1 = 0.000889701
deltaT = 0.00068663
Time = 0.240387

diagonal:  Solving for rho, Initial residual = 0, Final residual = 0, No Iterations 0
diagonal:  Solving for rhoUx, Initial residual = 0, Final residual = 0, No Iterations 0
smoothSolver:  Solving for Ux, Initial residual = 2.44377e-05, Final residual = 3.51617e-17, No Iterations 1
diagonal:  Solving for rhoE, Initial residual = 0, Final residual = 0, No Iterations 0
smoothSolver:  Solving for e, Initial residual = 5.44923e-05, Final residual = 2.85161e-16, No Iterations 1
ExecutionTime = 0.22 s  ClockTime = 0 s

Courant Number = 0.301012
maxDeltaT1 = 0.000889703
deltaT = 0.00068663
Time = 0.241074

diagonal:  Solving for rho, Initial residual = 0, Final residual = 0, No Iterations 0
diagonal:  Solving for rhoUx, Initial residual = 0, Final residual = 0, No Iterations 0
smoothSolver:  Solving for Ux, Initial residual = 2.4024e-05, Final residual = 3.35183e-17, No Iterations 1
diagonal:  Solving for rhoE, Initial residual = 0, Final residual = 0, No Iterations 0
smoothSolver:  Solving for e, Initial residual = 5.36563e-05, Final residual = 2.66544e-16, No Iterations 1
ExecutionTime = 0.22 s  ClockTime = 0 s

Courant Number = 0.301012
maxDeltaT1 = 0.000889705
deltaT = 0.00068663
Time = 0.24176

diagonal:  Solving for rho, Initial residual = 0, Final residual = 0, No Iterations 0
diagonal:  Solving for rhoUx, Initial residual = 0, Final residual = 0, No Iterations 0
smoothSolver:  Solving for Ux, Initial residual = 2.38563e-05, Final residual = 3.18032e-17, No Iterations 1
diagonal:  Solving for rhoE, Initial residual = 0, Final residual = 0, No Iterations 0
smoothSolver:  Solving for e, Initial residual = 5.36758e-05, Final residual = 2.80136e-16, No Iterations 1
ExecutionTime = 0.22 s  ClockTime = 0 s

Courant Number = 0.301012
maxDeltaT1 = 0.000889706
deltaT = 0.00068663
Time = 0.242447

diagonal:  Solving for rho, Initial residual = 0, Final residual = 0, No Iterations 0
diagonal:  Solving for rhoUx, Initial residual = 0, Final residual = 0, No Iterations 0
smoothSolver:  Solving for Ux, Initial residual = 2.43398e-05, Final residual = 3.57069e-17, No Iterations 1
diagonal:  Solving for rhoE, Initial residual = 0, Final residual = 0, No Iterations 0
smoothSolver:  Solving for e, Initial residual = 5.42608e-05, Final residual = 2.79159e-16, No Iterations 1
ExecutionTime = 0.22 s  ClockTime = 0 s

Courant Number = 0.301011
maxDeltaT1 = 0.000889705
deltaT = 0.00068663
Time = 0.243134

diagonal:  Solving for rho, Initial residual = 0, Final residual = 0, No Iterations 0
diagonal:  Solving for rhoUx, Initial residual = 0, Final residual = 0, No Iterations 0
smoothSolver:  Solving for Ux, Initial residual = 2.43939e-05, Final residual = 3.39144e-17, No Iterations 1
diagonal:  Solving for rhoE, Initial residual = 0, Final residual = 0, No Iterations 0
smoothSolver:  Solving for e, Initial residual = 5.41527e-05, Final residual = 2.96723e-16, No Iterations 1
ExecutionTime = 0.22 s  ClockTime = 0 s

Courant Number = 0.301011
maxDeltaT1 = 0.000889706
deltaT = 0.00068663
Time = 0.24382

diagonal:  Solving for rho, Initial residual = 0, Final residual = 0, No Iterations 0
diagonal:  Solving for rhoUx, Initial residual = 0, Final residual = 0, No Iterations 0
smoothSolver:  Solving for Ux, Initial residual = 2.404e-05, Final residual = 3.40584e-17, No Iterations 1
diagonal:  Solving for rhoE, Initial residual = 0, Final residual = 0, No Iterations 0
smoothSolver:  Solving for e, Initial residual = 5.3465e-05, Final residual = 2.67775e-16, No Iterations 1
ExecutionTime = 0.22 s  ClockTime = 0 s

Courant Number = 0.301011
maxDeltaT1 = 0.000889707
deltaT = 0.00068663
Time = 0.244507

diagonal:  Solving for rho, Initial residual = 0, Final residual = 0, No Iterations 0
diagonal:  Solving for rhoUx, Initial residual = 0, Final residual = 0, No Iterations 0
smoothSolver:  Solving for Ux, Initial residual = 2.36704e-05, Final residual = 3.61115e-17, No Iterations 1
diagonal:  Solving for rhoE, Initial residual = 0, Final residual = 0, No Iterations 0
smoothSolver:  Solving for e, Initial residual = 5.32149e-05, Final residual = 2.76667e-16, No Iterations 1
ExecutionTime = 0.22 s  ClockTime = 0 s

Courant Number = 0.301011
maxDeltaT1 = 0.000889708
deltaT = 0.00068663
Time = 0.245194

diagonal:  Solving for rho, Initial residual = 0, Final residual = 0, No Iterations 0
diagonal:  Solving for rhoUx, Initial residual = 0, Final residual = 0, No Iterations 0
smoothSolver:  Solving for Ux, Initial residual = 2.42237e-05, Final residual = 3.70475e-17, No Iterations 1
diagonal:  Solving for rhoE, Initial residual = 0, Final residual = 0, No Iterations 0
smoothSolver:  Solving for e, Initial residual = 5.39602e-05, Final residual = 2.92011e-16, No Iterations 1
ExecutionTime = 0.22 s  ClockTime = 0 s

Courant Number = 0.301011
maxDeltaT1 = 0.00088971
deltaT = 0.00068663
Time = 0.24588

diagonal:  Solving for rho, Initial residual = 0, Final residual = 0, No Iterations 0
diagonal:  Solving for rhoUx, Initial residual = 0, Final residual = 0, No Iterations 0
smoothSolver:  Solving for Ux, Initial residual = 2.4346e-05, Final residual = 3.05414e-17, No Iterations 1
diagonal:  Solving for rhoE, Initial residual = 0, Final residual = 0, No Iterations 0
smoothSolver:  Solving for e, Initial residual = 5.3993e-05, Final residual = 2.86389e-16, No Iterations 1
ExecutionTime = 0.22 s  ClockTime = 0 s

Courant Number = 0.301011
maxDeltaT1 = 0.000889711
deltaT = 0.00068663
Time = 0.246567

diagonal:  Solving for rho, Initial residual = 0, Final residual = 0, No Iterations 0
diagonal:  Solving for rhoUx, Initial residual = 0, Final residual = 0, No Iterations 0
smoothSolver:  Solving for Ux, Initial residual = 2.4055e-05, Final residual = 3.21296e-17, No Iterations 1
diagonal:  Solving for rhoE, Initial residual = 0, Final residual = 0, No Iterations 0
smoothSolver:  Solving for e, Initial residual = 5.3348e-05, Final residual = 2.86409e-16, No Iterations 1
ExecutionTime = 0.22 s  ClockTime = 0 s

Courant Number = 0.301011
maxDeltaT1 = 0.000889711
deltaT = 0.00068663
Time = 0.247253

diagonal:  Solving for rho, Initial residual = 0, Final residual = 0, No Iterations 0
diagonal:  Solving for rhoUx, Initial residual = 0, Final residual = 0, No Iterations 0
smoothSolver:  Solving for Ux, Initial residual = 2.34824e-05, Final residual = 3.46726e-17, No Iterations 1
diagonal:  Solving for rhoE, Initial residual = 0, Final residual = 0, No Iterations 0
smoothSolver:  Solving for e, Initial residual = 5.27149e-05, Final residual = 2.77044e-16, No Iterations 1
ExecutionTime = 0.22 s  ClockTime = 0 s

Courant Number = 0.30101
maxDeltaT1 = 0.000889711
deltaT = 0.00068663
Time = 0.24794

diagonal:  Solving for rho, Initial residual = 0, Final residual = 0, No Iterations 0
diagonal:  Solving for rhoUx, Initial residual = 0, Final residual = 0, No Iterations 0
smoothSolver:  Solving for Ux, Initial residual = 2.41052e-05, Final residual = 3.2278e-17, No Iterations 1
diagonal:  Solving for rhoE, Initial residual = 0, Final residual = 0, No Iterations 0
smoothSolver:  Solving for e, Initial residual = 5.3514e-05, Final residual = 2.89642e-16, No Iterations 1
ExecutionTime = 0.22 s  ClockTime = 0 s

Courant Number = 0.30101
maxDeltaT1 = 0.000889712
deltaT = 0.00068663
Time = 0.248627

diagonal:  Solving for rho, Initial residual = 0, Final residual = 0, No Iterations 0
diagonal:  Solving for rhoUx, Initial residual = 0, Final residual = 0, No Iterations 0
smoothSolver:  Solving for Ux, Initial residual = 2.42948e-05, Final residual = 3.33334e-17, No Iterations 1
diagonal:  Solving for rhoE, Initial residual = 0, Final residual = 0, No Iterations 0
smoothSolver:  Solving for e, Initial residual = 5.36473e-05, Final residual = 2.62056e-16, No Iterations 1
ExecutionTime = 0.22 s  ClockTime = 0 s

Courant Number = 0.30101
maxDeltaT1 = 0.000889713
deltaT = 0.00068663
Time = 0.249313

diagonal:  Solving for rho, Initial residual = 0, Final residual = 0, No Iterations 0
diagonal:  Solving for rhoUx, Initial residual = 0, Final residual = 0, No Iterations 0
smoothSolver:  Solving for Ux, Initial residual = 2.40661e-05, Final residual = 3.47954e-17, No Iterations 1
diagonal:  Solving for rhoE, Initial residual = 0, Final residual = 0, No Iterations 0
smoothSolver:  Solving for e, Initial residual = 5.3155e-05, Final residual = 2.79145e-16, No Iterations 1
ExecutionTime = 0.23 s  ClockTime = 0 s

Courant Number = 0.30101
maxDeltaT1 = 0.000889715
deltaT = 0.00068663
Time = 0.25

diagonal:  Solving for rho, Initial residual = 0, Final residual = 0, No Iterations 0
diagonal:  Solving for rhoUx, Initial residual = 0, Final residual = 0, No Iterations 0
smoothSolver:  Solving for Ux, Initial residual = 2.34642e-05, Final residual = 3.02631e-17, No Iterations 1
diagonal:  Solving for rhoE, Initial residual = 0, Final residual = 0, No Iterations 0
smoothSolver:  Solving for e, Initial residual = 5.2244e-05, Final residual = 2.47475e-16, No Iterations 1
ExecutionTime = 0.23 s  ClockTime = 0 s

End

